MODEL 1
REMARK VINA RESULT:      -7.0      0.000      0.000
REMARK  3 active torsions:
REMARK  status: ('A' for Active; 'I' for Inactive)
REMARK    1  A    between atoms: C2_2  and  N1_4 
REMARK    2  A    between atoms: C6_8  and  C7_9 
REMARK    3  A    between atoms: C10_12  and  C11_14 
ROOT
ATOM      1  C7  <0> d          29.337  69.631 -23.945  0.00  0.00     0.077 A 
ATOM      2  C8  <0> d          29.766  68.643 -24.813  0.00  0.00     0.040 A 
ATOM      3  C9  <0> d          28.891  68.656 -25.903  0.00  0.00     0.041 A 
ATOM      4  C10 <0> d          27.963  69.644 -25.662  0.00  0.00     0.086 A 
ATOM      5  O2  <0> d          28.251  70.224 -24.483  0.00  0.00    -0.310 OA
ENDROOT
BRANCH   1   6
ATOM      6  C6  <0> d          29.936  69.964 -22.711  0.00  0.00     0.061 C 
ATOM      7  C5  <0> d          29.304  69.659 -21.541  0.00  0.00     0.081 A 
ATOM      8  C4  <0> d          27.994  69.133 -21.325  0.00  0.00     0.268 A 
ATOM      9  S1  <0> d          29.895  69.799 -19.859  0.00  0.00    -0.023 SA
ATOM     10  N1  <0> d          27.607  68.920 -20.080  0.00  0.00    -0.270 N 
ATOM     11  O1  <0> d          27.255  68.889 -22.263  0.00  0.00    -0.266 OA
ATOM     12  C17 <0> d          28.428  69.192 -19.041  0.00  0.00     0.294 A 
ATOM     13  O3  <0> d          28.220  69.053 -17.850  0.00  0.00    -0.259 OA
BRANCH  10  14
ATOM     14  C2  <0> d          26.269  68.382 -19.822  0.00  0.00     0.088 C 
ATOM     15  C1  <0> d          26.391  67.023 -19.131  0.00  0.00     0.032 C 
ATOM     16  C3  <0> d          25.497  69.346 -18.918  0.00  0.00     0.032 C 
ENDBRANCH  10  14
ENDBRANCH   1   6
BRANCH   4  17
ATOM     17  C11 <0> d          26.845  70.011 -26.553  0.00  0.00    -0.001 A 
ATOM     18  C16 <0> d          25.665  69.264 -26.541  0.00  0.00     0.039 A 
ATOM     19  C15 <0> d          24.624  69.613 -27.377  0.00  0.00     0.052 A 
ATOM     20  C14 <0> d          24.747  70.702 -28.225  0.00  0.00     0.032 A 
ATOM     21 Cl1  <0> d          23.155  68.687 -27.364  0.00  0.00    -0.083 Cl
ATOM     22  C13 <0> d          25.914  71.446 -28.241  0.00  0.00     0.022 A 
ATOM     23 Br1  <0> d          23.312  71.178 -29.360  0.00  0.00    -0.049 Br
ATOM     24  C12 <0> d          26.963  71.108 -27.410  0.00  0.00     0.016 A 
ENDBRANCH   4  17
TORSDOF 3
ENDMDL
MODEL 2
REMARK VINA RESULT:      -6.9      5.546      8.103
REMARK  3 active torsions:
REMARK  status: ('A' for Active; 'I' for Inactive)
REMARK    1  A    between atoms: C2_2  and  N1_4 
REMARK    2  A    between atoms: C6_8  and  C7_9 
REMARK    3  A    between atoms: C10_12  and  C11_14 
ROOT
ATOM      1  C7  <0> d          30.955  70.496 -20.550  0.00  0.00     0.077 A 
ATOM      2  C8  <0> d          30.474  70.111 -19.312  0.00  0.00     0.040 A 
ATOM      3  C9  <0> d          30.174  71.284 -18.613  0.00  0.00     0.041 A 
ATOM      4  C10 <0> d          30.481  72.338 -19.444  0.00  0.00     0.086 A 
ATOM      5  O2  <0> d          30.944  71.844 -20.608  0.00  0.00    -0.310 OA
ENDROOT
BRANCH   1   6
ATOM      6  C6  <0> d          31.378  69.628 -21.579  0.00  0.00     0.061 C 
ATOM      7  C5  <0> d          30.649  69.527 -22.729  0.00  0.00     0.081 A 
ATOM      8  C4  <0> d          29.378  70.092 -23.052  0.00  0.00     0.268 A 
ATOM      9  S1  <0> d          31.032  68.658 -24.245  0.00  0.00    -0.023 SA
ATOM     10  N1  <0> d          28.876  69.845 -24.249  0.00  0.00    -0.270 N 
ATOM     11  O1  <0> d          28.776  70.781 -22.248  0.00  0.00    -0.266 OA
ATOM     12  C17 <0> d          29.545  69.080 -25.141  0.00  0.00     0.294 A 
ATOM     13  O3  <0> d          29.219  68.764 -26.270  0.00  0.00    -0.259 OA
BRANCH  10  14
ATOM     14  C2  <0> d          27.573  70.408 -24.615  0.00  0.00     0.088 C 
ATOM     15  C1  <0> d          27.621  70.905 -26.061  0.00  0.00     0.032 C 
ATOM     16  C3  <0> d          26.496  69.329 -24.482  0.00  0.00     0.032 C 
ENDBRANCH  10  14
ENDBRANCH   1   6
BRANCH   4  17
ATOM     17  C11 <0> d          30.323  73.768 -19.117  0.00  0.00    -0.001 A 
ATOM     18  C16 <0> d          29.104  74.244 -18.629  0.00  0.00     0.039 A 
ATOM     19  C15 <0> d          28.963  75.583 -18.325  0.00  0.00     0.052 A 
ATOM     20  C14 <0> d          30.027  76.453 -18.502  0.00  0.00     0.032 A 
ATOM     21 Cl1  <0> d          27.450  76.179 -17.717  0.00  0.00    -0.083 Cl
ATOM     22  C13 <0> d          31.237  75.986 -18.986  0.00  0.00     0.022 A 
ATOM     23 Br1  <0> d          29.827  78.284 -18.075  0.00  0.00    -0.049 Br
ATOM     24  C12 <0> d          31.391  74.650 -19.294  0.00  0.00     0.016 A 
ENDBRANCH   4  17
TORSDOF 3
ENDMDL
MODEL 3
REMARK VINA RESULT:      -6.6     19.763     21.585
REMARK  3 active torsions:
REMARK  status: ('A' for Active; 'I' for Inactive)
REMARK    1  A    between atoms: C2_2  and  N1_4 
REMARK    2  A    between atoms: C6_8  and  C7_9 
REMARK    3  A    between atoms: C10_12  and  C11_14 
ROOT
ATOM      1  C7  <0> d          31.764  86.116 -17.308  0.00  0.00     0.077 A 
ATOM      2  C8  <0> d          33.052  85.668 -17.077  0.00  0.00     0.040 A 
ATOM      3  C9  <0> d          33.414  86.122 -15.805  0.00  0.00     0.041 A 
ATOM      4  C10 <0> d          32.340  86.827 -15.308  0.00  0.00     0.086 A 
ATOM      5  O2  <0> d          31.355  86.807 -16.224  0.00  0.00    -0.310 OA
ENDROOT
BRANCH   1   6
ATOM      6  C6  <0> d          31.005  85.883 -18.476  0.00  0.00     0.061 C 
ATOM      7  C5  <0> d          31.198  86.661 -19.581  0.00  0.00     0.081 A 
ATOM      8  C4  <0> d          32.001  87.831 -19.740  0.00  0.00     0.268 A 
ATOM      9  S1  <0> d          30.521  86.487 -21.226  0.00  0.00    -0.023 SA
ATOM     10  N1  <0> d          32.023  88.412 -20.926  0.00  0.00    -0.270 N 
ATOM     11  O1  <0> d          32.647  88.279 -18.809  0.00  0.00    -0.266 OA
ATOM     12  C17 <0> d          31.306  87.915 -21.958  0.00  0.00     0.294 A 
ATOM     13  O3  <0> d          31.221  88.331 -23.099  0.00  0.00    -0.259 OA
BRANCH  10  14
ATOM     14  C2  <0> d          32.836  89.615 -21.126  0.00  0.00     0.088 C 
ATOM     15  C1  <0> d          33.922  89.329 -22.164  0.00  0.00     0.032 C 
ATOM     16  C3  <0> d          31.945  90.757 -21.621  0.00  0.00     0.032 C 
ENDBRANCH  10  14
ENDBRANCH   1   6
BRANCH   4  17
ATOM     17  C11 <0> d          32.279  87.486 -13.990  0.00  0.00    -0.001 A 
ATOM     18  C16 <0> d          32.026  86.734 -12.841  0.00  0.00     0.039 A 
ATOM     19  C15 <0> d          31.970  87.358 -11.611  0.00  0.00     0.052 A 
ATOM     20  C14 <0> d          32.165  88.727 -11.515  0.00  0.00     0.032 A 
ATOM     21 Cl1  <0> d          31.656  86.426 -10.180  0.00  0.00    -0.083 Cl
ATOM     22  C13 <0> d          32.416  89.477 -12.651  0.00  0.00     0.022 A 
ATOM     23 Br1  <0> d          32.094  89.571  -9.825  0.00  0.00    -0.049 Br
ATOM     24  C12 <0> d          32.475  88.866 -13.886  0.00  0.00     0.016 A 
ENDBRANCH   4  17
TORSDOF 3
ENDMDL
MODEL 4
REMARK VINA RESULT:      -6.6      3.874      7.340
REMARK  3 active torsions:
REMARK  status: ('A' for Active; 'I' for Inactive)
REMARK    1  A    between atoms: C2_2  and  N1_4 
REMARK    2  A    between atoms: C6_8  and  C7_9 
REMARK    3  A    between atoms: C10_12  and  C11_14 
ROOT
ATOM      1  C7  <0> d          27.764  69.444 -22.185  0.00  0.00     0.077 A 
ATOM      2  C8  <0> d          27.834  70.712 -21.638  0.00  0.00     0.040 A 
ATOM      3  C9  <0> d          26.786  70.814 -20.720  0.00  0.00     0.041 A 
ATOM      4  C10 <0> d          26.116  69.611 -20.739  0.00  0.00     0.086 A 
ATOM      5  O2  <0> d          26.723  68.797 -21.622  0.00  0.00    -0.310 OA
ENDROOT
BRANCH   1   6
ATOM      6  C6  <0> d          28.637  68.915 -23.160  0.00  0.00     0.061 C 
ATOM      7  C5  <0> d          28.306  68.986 -24.483  0.00  0.00     0.081 A 
ATOM      8  C4  <0> d          27.091  69.422 -25.094  0.00  0.00     0.268 A 
ATOM      9  S1  <0> d          29.280  68.567 -25.923  0.00  0.00    -0.023 SA
ATOM     10  N1  <0> d          27.016  69.397 -26.412  0.00  0.00    -0.270 N 
ATOM     11  O1  <0> d          26.153  69.806 -24.418  0.00  0.00    -0.266 OA
ATOM     12  C17 <0> d          28.058  68.971 -27.161  0.00  0.00     0.294 A 
ATOM     13  O3  <0> d          28.142  68.889 -28.372  0.00  0.00    -0.259 OA
BRANCH  10  14
ATOM     14  C2  <0> d          25.784  69.837 -27.074  0.00  0.00     0.088 C 
ATOM     15  C1  <0> d          26.109  70.956 -28.064  0.00  0.00     0.032 C 
ATOM     16  C3  <0> d          25.159  68.658 -27.823  0.00  0.00     0.032 C 
ENDBRANCH  10  14
ENDBRANCH   1   6
BRANCH   4  17
ATOM     17  C11 <0> d          24.936  69.269 -19.922  0.00  0.00    -0.001 A 
ATOM     18  C16 <0> d          23.696  69.063 -20.532  0.00  0.00     0.039 A 
ATOM     19  C15 <0> d          22.597  68.744 -19.761  0.00  0.00     0.052 A 
ATOM     20  C14 <0> d          22.721  68.627 -18.386  0.00  0.00     0.032 A 
ATOM     21 Cl1  <0> d          21.054  68.487 -20.517  0.00  0.00    -0.083 Cl
ATOM     22  C13 <0> d          23.947  68.830 -17.776  0.00  0.00     0.022 A 
ATOM     23 Br1  <0> d          21.211  68.181 -17.339  0.00  0.00    -0.049 Br
ATOM     24  C12 <0> d          25.054  69.149 -18.535  0.00  0.00     0.016 A 
ENDBRANCH   4  17
TORSDOF 3
ENDMDL
MODEL 5
REMARK VINA RESULT:      -6.3     19.724     21.232
REMARK  3 active torsions:
REMARK  status: ('A' for Active; 'I' for Inactive)
REMARK    1  A    between atoms: C2_2  and  N1_4 
REMARK    2  A    between atoms: C6_8  and  C7_9 
REMARK    3  A    between atoms: C10_12  and  C11_14 
ROOT
ATOM      1  C7  <0> d          28.131  62.178  -5.495  0.00  0.00     0.077 A 
ATOM      2  C8  <0> d          27.653  62.113  -4.199  0.00  0.00     0.040 A 
ATOM      3  C9  <0> d          28.441  62.978  -3.435  0.00  0.00     0.041 A 
ATOM      4  C10 <0> d          29.368  63.536  -4.286  0.00  0.00     0.086 A 
ATOM      5  O2  <0> d          29.162  63.048  -5.523  0.00  0.00    -0.310 OA
ENDROOT
BRANCH   1   6
ATOM      6  C6  <0> d          27.623  61.461  -6.600  0.00  0.00     0.061 C 
ATOM      7  C5  <0> d          28.124  60.229  -6.903  0.00  0.00     0.081 A 
ATOM      8  C4  <0> d          29.236  59.535  -6.336  0.00  0.00     0.268 A 
ATOM      9  S1  <0> d          27.562  59.039  -8.114  0.00  0.00    -0.023 SA
ATOM     10  N1  <0> d          29.525  58.335  -6.808  0.00  0.00    -0.270 N 
ATOM     11  O1  <0> d          29.897  60.035  -5.443  0.00  0.00    -0.266 OA
ATOM     12  C17 <0> d          28.791  57.782  -7.799  0.00  0.00     0.294 A 
ATOM     13  O3  <0> d          28.930  56.698  -8.335  0.00  0.00    -0.259 OA
BRANCH  10  14
ATOM     14  C2  <0> d          30.659  57.594  -6.249  0.00  0.00     0.088 C 
ATOM     15  C1  <0> d          30.171  56.254  -5.697  0.00  0.00     0.032 C 
ATOM     16  C3  <0> d          31.697  57.346  -7.347  0.00  0.00     0.032 C 
ENDBRANCH  10  14
ENDBRANCH   1   6
BRANCH   4  17
ATOM     17  C11 <0> d          30.408  64.512  -3.908  0.00  0.00    -0.001 A 
ATOM     18  C16 <0> d          30.537  65.709  -4.615  0.00  0.00     0.039 A 
ATOM     19  C15 <0> d          31.512  66.618  -4.255  0.00  0.00     0.052 A 
ATOM     20  C14 <0> d          32.360  66.344  -3.194  0.00  0.00     0.032 A 
ATOM     21 Cl1  <0> d          31.675  68.107  -5.133  0.00  0.00    -0.083 Cl
ATOM     22  C13 <0> d          32.236  65.159  -2.489  0.00  0.00     0.022 A 
ATOM     23 Br1  <0> d          33.687  67.598  -2.702  0.00  0.00    -0.049 Br
ATOM     24  C12 <0> d          31.266  64.243  -2.838  0.00  0.00     0.016 A 
ENDBRANCH   4  17
TORSDOF 3
ENDMDL
MODEL 6
REMARK VINA RESULT:      -6.1     23.064     24.845
REMARK  3 active torsions:
REMARK  status: ('A' for Active; 'I' for Inactive)
REMARK    1  A    between atoms: C2_2  and  N1_4 
REMARK    2  A    between atoms: C6_8  and  C7_9 
REMARK    3  A    between atoms: C10_12  and  C11_14 
ROOT
ATOM      1  C7  <0> d          11.311  49.994 -27.807  0.00  0.00     0.077 A 
ATOM      2  C8  <0> d          11.755  50.275 -26.527  0.00  0.00     0.040 A 
ATOM      3  C9  <0> d          11.650  51.659 -26.359  0.00  0.00     0.041 A 
ATOM      4  C10 <0> d          11.149  52.171 -27.535  0.00  0.00     0.086 A 
ATOM      5  O2  <0> d          10.945  51.153 -28.392  0.00  0.00    -0.310 OA
ENDROOT
BRANCH   1   6
ATOM      6  C6  <0> d          11.245  48.713 -28.395  0.00  0.00     0.061 C 
ATOM      7  C5  <0> d          12.312  48.229 -29.096  0.00  0.00     0.081 A 
ATOM      8  C4  <0> d          13.525  48.882 -29.471  0.00  0.00     0.268 A 
ATOM      9  S1  <0> d          12.574  46.600 -29.787  0.00  0.00    -0.023 SA
ATOM     10  N1  <0> d          14.416  48.189 -30.157  0.00  0.00    -0.270 N 
ATOM     11  O1  <0> d          13.732  50.044 -29.167  0.00  0.00    -0.266 OA
ATOM     12  C17 <0> d          14.187  46.900 -30.495  0.00  0.00     0.294 A 
ATOM     13  O3  <0> d          14.900  46.137 -31.118  0.00  0.00    -0.259 OA
BRANCH  10  14
ATOM     14  C2  <0> d          15.673  48.827 -30.560  0.00  0.00     0.088 C 
ATOM     15  C1  <0> d          16.851  47.963 -30.106  0.00  0.00     0.032 C 
ATOM     16  C3  <0> d          15.705  48.976 -32.082  0.00  0.00     0.032 C 
ENDBRANCH  10  14
ENDBRANCH   1   6
BRANCH   4  17
ATOM     17  C11 <0> d          10.874  53.595 -27.807  0.00  0.00    -0.001 A 
ATOM     18  C16 <0> d          11.879  54.418 -28.317  0.00  0.00     0.039 A 
ATOM     19  C15 <0> d          11.615  55.749 -28.568  0.00  0.00     0.052 A 
ATOM     20  C14 <0> d          10.354  56.268 -28.317  0.00  0.00     0.032 A 
ATOM     21 Cl1  <0> d          12.863  56.776 -29.203  0.00  0.00    -0.083 Cl
ATOM     22  C13 <0> d           9.354  55.456 -27.811  0.00  0.00     0.022 A 
ATOM     23 Br1  <0> d           9.999  58.090 -28.673  0.00  0.00    -0.049 Br
ATOM     24  C12 <0> d           9.605  54.124 -27.555  0.00  0.00     0.016 A 
ENDBRANCH   4  17
TORSDOF 3
ENDMDL
MODEL 7
REMARK VINA RESULT:      -6.1     22.877     24.814
REMARK  3 active torsions:
REMARK  status: ('A' for Active; 'I' for Inactive)
REMARK    1  A    between atoms: C2_2  and  N1_4 
REMARK    2  A    between atoms: C6_8  and  C7_9 
REMARK    3  A    between atoms: C10_12  and  C11_14 
ROOT
ATOM      1  C7  <0> d          44.999  55.387 -24.640  0.00  0.00     0.077 A 
ATOM      2  C8  <0> d          43.693  55.791 -24.853  0.00  0.00     0.040 A 
ATOM      3  C9  <0> d          42.897  54.644 -24.765  0.00  0.00     0.041 A 
ATOM      4  C10 <0> d          43.741  53.588 -24.504  0.00  0.00     0.086 A 
ATOM      5  O2  <0> d          45.001  54.055 -24.426  0.00  0.00    -0.310 OA
ENDROOT
BRANCH   1   6
ATOM      6  C6  <0> d          46.133  56.227 -24.640  0.00  0.00     0.061 C 
ATOM      7  C5  <0> d          46.739  56.555 -25.818  0.00  0.00     0.081 A 
ATOM      8  C4  <0> d          46.487  56.068 -27.136  0.00  0.00     0.268 A 
ATOM      9  S1  <0> d          48.060  57.720 -26.131  0.00  0.00    -0.023 SA
ATOM     10  N1  <0> d          47.219  56.549 -28.126  0.00  0.00    -0.270 N 
ATOM     11  O1  <0> d          45.623  55.234 -27.342  0.00  0.00    -0.266 OA
ATOM     12  C17 <0> d          48.178  57.473 -27.897  0.00  0.00     0.294 A 
ATOM     13  O3  <0> d          48.928  58.007 -28.693  0.00  0.00    -0.259 OA
BRANCH  10  14
ATOM     14  C2  <0> d          46.989  56.071 -29.492  0.00  0.00     0.088 C 
ATOM     15  C1  <0> d          46.694  57.262 -30.405  0.00  0.00     0.032 C 
ATOM     16  C3  <0> d          48.235  55.339 -29.994  0.00  0.00     0.032 C 
ENDBRANCH  10  14
ENDBRANCH   1   6
BRANCH   4  17
ATOM     17  C11 <0> d          43.332  52.181 -24.332  0.00  0.00    -0.001 A 
ATOM     18  C16 <0> d          44.127  51.152 -24.840  0.00  0.00     0.039 A 
ATOM     19  C15 <0> d          43.737  49.838 -24.674  0.00  0.00     0.052 A 
ATOM     20  C14 <0> d          42.561  49.540 -24.005  0.00  0.00     0.032 A 
ATOM     21 Cl1  <0> d          44.724  48.556 -25.304  0.00  0.00    -0.083 Cl
ATOM     22  C13 <0> d          41.769  50.556 -23.500  0.00  0.00     0.022 A 
ATOM     23 Br1  <0> d          42.040  47.737 -23.776  0.00  0.00    -0.049 Br
ATOM     24  C12 <0> d          42.147  51.873 -23.658  0.00  0.00     0.016 A 
ENDBRANCH   4  17
TORSDOF 3
ENDMDL
MODEL 8
REMARK VINA RESULT:      -6.0      7.809     10.897
REMARK  3 active torsions:
REMARK  status: ('A' for Active; 'I' for Inactive)
REMARK    1  A    between atoms: C2_2  and  N1_4 
REMARK    2  A    between atoms: C6_8  and  C7_9 
REMARK    3  A    between atoms: C10_12  and  C11_14 
ROOT
ATOM      1  C7  <0> d          19.665  69.934 -29.587  0.00  0.00     0.077 A 
ATOM      2  C8  <0> d          20.343  70.416 -30.692  0.00  0.00     0.040 A 
ATOM      3  C9  <0> d          21.693  70.494 -30.335  0.00  0.00     0.041 A 
ATOM      4  C10 <0> d          21.789  70.060 -29.032  0.00  0.00     0.086 A 
ATOM      5  O2  <0> d          20.561  69.721 -28.601  0.00  0.00    -0.310 OA
ENDROOT
BRANCH   1   6
ATOM      6  C6  <0> d          18.276  69.699 -29.509  0.00  0.00     0.061 C 
ATOM      7  C5  <0> d          17.799  68.420 -29.523  0.00  0.00     0.081 A 
ATOM      8  C4  <0> d          18.494  67.192 -29.742  0.00  0.00     0.268 A 
ATOM      9  S1  <0> d          16.132  67.825 -29.264  0.00  0.00    -0.023 SA
ATOM     10  N1  <0> d          17.799  66.070 -29.706  0.00  0.00    -0.270 N 
ATOM     11  O1  <0> d          19.694  67.181 -29.957  0.00  0.00    -0.266 OA
ATOM     12  C17 <0> d          16.468  66.082 -29.468  0.00  0.00     0.294 A 
ATOM     13  O3  <0> d          15.696  65.144 -29.404  0.00  0.00    -0.259 OA
BRANCH  10  14
ATOM     14  C2  <0> d          18.480  64.791 -29.926  0.00  0.00     0.088 C 
ATOM     15  C1  <0> d          18.405  63.947 -28.653  0.00  0.00     0.032 C 
ATOM     16  C3  <0> d          17.801  64.043 -31.076  0.00  0.00     0.032 C 
ENDBRANCH  10  14
ENDBRANCH   1   6
BRANCH   4  17
ATOM     17  C11 <0> d          23.034  69.973 -28.243  0.00  0.00    -0.001 A 
ATOM     18  C16 <0> d          24.127  70.779 -28.567  0.00  0.00     0.039 A 
ATOM     19  C15 <0> d          25.287  70.692 -27.825  0.00  0.00     0.052 A 
ATOM     20  C14 <0> d          25.368  69.809 -26.760  0.00  0.00     0.032 A 
ATOM     21 Cl1  <0> d          26.649  71.694 -28.225  0.00  0.00    -0.083 Cl
ATOM     22  C13 <0> d          24.287  69.008 -26.434  0.00  0.00     0.022 A 
ATOM     23 Br1  <0> d          26.959  69.704 -25.744  0.00  0.00    -0.049 Br
ATOM     24  C12 <0> d          23.122  69.085 -27.168  0.00  0.00     0.016 A 
ENDBRANCH   4  17
TORSDOF 3
ENDMDL
MODEL 9
REMARK VINA RESULT:      -6.0     20.024     22.014
REMARK  3 active torsions:
REMARK  status: ('A' for Active; 'I' for Inactive)
REMARK    1  A    between atoms: C2_2  and  N1_4 
REMARK    2  A    between atoms: C6_8  and  C7_9 
REMARK    3  A    between atoms: C10_12  and  C11_14 
ROOT
ATOM      1  C7  <0> d          31.063  85.603 -15.663  0.00  0.00     0.077 A 
ATOM      2  C8  <0> d          29.813  85.418 -15.102  0.00  0.00     0.040 A 
ATOM      3  C9  <0> d          29.913  85.799 -13.760  0.00  0.00     0.041 A 
ATOM      4  C10 <0> d          31.214  86.199 -13.552  0.00  0.00     0.086 A 
ATOM      5  O2  <0> d          31.889  86.080 -14.709  0.00  0.00    -0.310 OA
ENDROOT
BRANCH   1   6
ATOM      6  C6  <0> d          31.412  85.342 -17.006  0.00  0.00     0.061 C 
ATOM      7  C5  <0> d          31.706  86.377 -17.847  0.00  0.00     0.081 A 
ATOM      8  C4  <0> d          31.597  87.784 -17.630  0.00  0.00     0.268 A 
ATOM      9  S1  <0> d          32.341  86.338 -19.519  0.00  0.00    -0.023 SA
ATOM     10  N1  <0> d          31.949  88.592 -18.614  0.00  0.00    -0.270 N 
ATOM     11  O1  <0> d          31.192  88.225 -16.569  0.00  0.00    -0.266 OA
ATOM     12  C17 <0> d          32.398  88.102 -19.791  0.00  0.00     0.294 A 
ATOM     13  O3  <0> d          32.756  88.710 -20.783  0.00  0.00    -0.259 OA
BRANCH  10  14
ATOM     14  C2  <0> d          31.851  90.042 -18.427  0.00  0.00     0.088 C 
ATOM     15  C1  <0> d          33.247  90.663 -18.506  0.00  0.00     0.032 C 
ATOM     16  C3  <0> d          30.964  90.639 -19.522  0.00  0.00     0.032 C 
ENDBRANCH  10  14
ENDBRANCH   1   6
BRANCH   4  17
ATOM     17  C11 <0> d          31.771  86.684 -12.275  0.00  0.00    -0.001 A 
ATOM     18  C16 <0> d          32.301  87.973 -12.185  0.00  0.00     0.039 A 
ATOM     19  C15 <0> d          32.821  88.420 -10.987  0.00  0.00     0.052 A 
ATOM     20  C14 <0> d          32.817  87.593  -9.875  0.00  0.00     0.032 A 
ATOM     21 Cl1  <0> d          33.479  90.023 -10.873  0.00  0.00    -0.083 Cl
ATOM     22  C13 <0> d          32.294  86.315  -9.958  0.00  0.00     0.022 A 
ATOM     23 Br1  <0> d          33.523  88.218  -8.236  0.00  0.00    -0.049 Br
ATOM     24  C12 <0> d          31.771  85.856 -11.150  0.00  0.00     0.016 A 
ENDBRANCH   4  17
TORSDOF 3
ENDMDL
MODEL 10
REMARK VINA RESULT:      -6.0     23.093     26.978
REMARK  3 active torsions:
REMARK  status: ('A' for Active; 'I' for Inactive)
REMARK    1  A    between atoms: C2_2  and  N1_4 
REMARK    2  A    between atoms: C6_8  and  C7_9 
REMARK    3  A    between atoms: C10_12  and  C11_14 
ROOT
ATOM      1  C7  <0> d          27.214  51.395  -2.739  0.00  0.00     0.077 A 
ATOM      2  C8  <0> d          25.960  50.810  -2.757  0.00  0.00     0.040 A 
ATOM      3  C9  <0> d          26.075  49.632  -3.500  0.00  0.00     0.041 A 
ATOM      4  C10 <0> d          27.387  49.540  -3.909  0.00  0.00     0.086 A 
ATOM      5  O2  <0> d          28.058  50.606  -3.436  0.00  0.00    -0.310 OA
ENDROOT
BRANCH   1   6
ATOM      6  C6  <0> d          27.552  52.605  -2.096  0.00  0.00     0.061 C 
ATOM      7  C5  <0> d          27.414  53.791  -2.758  0.00  0.00     0.081 A 
ATOM      8  C4  <0> d          27.080  54.035  -4.125  0.00  0.00     0.268 A 
ATOM      9  S1  <0> d          27.593  55.462  -2.147  0.00  0.00    -0.023 SA
ATOM     10  N1  <0> d          27.006  55.290  -4.531  0.00  0.00    -0.270 N 
ATOM     11  O1  <0> d          26.869  53.114  -4.893  0.00  0.00    -0.266 OA
ATOM     12  C17 <0> d          27.241  56.313  -3.678  0.00  0.00     0.294 A 
ATOM     13  O3  <0> d          27.214  57.509  -3.896  0.00  0.00    -0.259 OA
BRANCH  10  14
ATOM     14  C2  <0> d          26.666  55.579  -5.926  0.00  0.00     0.088 C 
ATOM     15  C1  <0> d          25.492  56.559  -5.973  0.00  0.00     0.032 C 
ATOM     16  C3  <0> d          27.876  56.199  -6.629  0.00  0.00     0.032 C 
ENDBRANCH  10  14
ENDBRANCH   1   6
BRANCH   4  17
ATOM     17  C11 <0> d          27.961  48.451  -4.722  0.00  0.00    -0.001 A 
ATOM     18  C16 <0> d          29.032  48.707  -5.581  0.00  0.00     0.039 A 
ATOM     19  C15 <0> d          29.564  47.684  -6.339  0.00  0.00     0.052 A 
ATOM     20  C14 <0> d          29.039  46.404  -6.247  0.00  0.00     0.032 A 
ATOM     21 Cl1  <0> d          30.896  47.999  -7.408  0.00  0.00    -0.083 Cl
ATOM     22  C13 <0> d          27.978  46.145  -5.397  0.00  0.00     0.022 A 
ATOM     23 Br1  <0> d          29.780  45.006  -7.282  0.00  0.00    -0.049 Br
ATOM     24  C12 <0> d          27.437  47.159  -4.634  0.00  0.00     0.016 A 
ENDBRANCH   4  17
TORSDOF 3
ENDMDL
