MODEL 1
REMARK VINA RESULT:      -5.9      0.000      0.000
REMARK  0 active torsions:
REMARK  status: ('A' for Active; 'I' for Inactive)
ROOT
ATOM      1  C1  <0> d           8.824  49.806 -26.864  0.00  0.00     0.042 C 
ATOM      2  C2  <0> d           9.346  51.199 -27.058  0.00  0.00     0.036 A 
ATOM      3  C3  <0> d          10.139  51.796 -25.887  0.00  0.00     0.036 A 
ATOM      4  C4  <0> d           9.061  52.577 -26.533  0.00  0.00     0.122 A 
ATOM      5 Cl1  <0> d           7.527  52.785 -25.610  0.00  0.00    -0.101 Cl
ATOM      6 Cl2  <0> d           9.556  53.989 -27.537  0.00  0.00    -0.101 Cl
ATOM      7  C5  <0> d          11.651  51.758 -26.016  0.00  0.00     0.042 C 
ATOM      8  C6  <0> d          11.941  50.286 -26.240  0.00  0.00    -0.075 C 
ATOM      9  C7  <0> d          12.859  49.702 -26.961  0.00  0.00     0.003 C 
ATOM     10  C8  <0> d          12.874  48.246 -27.103  0.00  0.00     0.000 C 
ATOM     11  C9  <0> d          11.815  47.458 -27.258  0.00  0.00     0.000 C 
ATOM     12  C10 <0> d          10.448  47.955 -27.375  0.00  0.00     0.003 C 
ATOM     13  C11 <0> d          10.044  48.963 -26.635  0.00  0.00    -0.075 C 
ATOM     14  C12 <0> d          10.972  49.353 -25.480  0.00  0.00     0.068 C 
ENDROOT
TORSDOF 0
ENDMDL
MODEL 2
REMARK VINA RESULT:      -5.7     23.758     25.268
REMARK  0 active torsions:
REMARK  status: ('A' for Active; 'I' for Inactive)
ROOT
ATOM      1  C1  <0> d          28.224  69.140 -22.352  0.00  0.00     0.042 C 
ATOM      2  C2  <0> d          27.274  68.417 -21.444  0.00  0.00     0.036 A 
ATOM      3  C3  <0> d          26.153  69.262 -20.823  0.00  0.00     0.036 A 
ATOM      4  C4  <0> d          26.964  68.360 -19.976  0.00  0.00     0.122 A 
ATOM      5 Cl1  <0> d          28.163  69.125 -18.869  0.00  0.00    -0.101 Cl
ATOM      6 Cl2  <0> d          26.154  66.883 -19.334  0.00  0.00    -0.101 Cl
ATOM      7  C5  <0> d          24.792  69.161 -21.489  0.00  0.00     0.042 C 
ATOM      8  C6  <0> d          25.087  69.532 -22.931  0.00  0.00    -0.075 C 
ATOM      9  C7  <0> d          24.558  69.099 -24.043  0.00  0.00     0.003 C 
ATOM     10  C8  <0> d          25.087  69.539 -25.334  0.00  0.00     0.000 C 
ATOM     11  C9  <0> d          26.369  69.704 -25.647  0.00  0.00     0.000 C 
ATOM     12  C10 <0> d          27.467  69.399 -24.736  0.00  0.00     0.003 C 
ATOM     13  C11 <0> d          27.368  69.683 -23.457  0.00  0.00    -0.075 C 
ATOM     14  C12 <0> d          26.198  70.595 -23.069  0.00  0.00     0.068 C 
ENDROOT
TORSDOF 0
ENDMDL
MODEL 3
REMARK VINA RESULT:      -5.6      3.124      5.413
REMARK  0 active torsions:
REMARK  status: ('A' for Active; 'I' for Inactive)
ROOT
ATOM      1  C1  <0> d           8.373  53.417 -27.248  0.00  0.00     0.042 C 
ATOM      2  C2  <0> d           9.491  52.707 -26.545  0.00  0.00     0.036 A 
ATOM      3  C3  <0> d          10.577  52.095 -27.441  0.00  0.00     0.036 A 
ATOM      4  C4  <0> d           9.967  51.295 -26.356  0.00  0.00     0.122 A 
ATOM      5 Cl1  <0> d           8.824  49.988 -26.836  0.00  0.00    -0.101 Cl
ATOM      6 Cl2  <0> d          11.000  50.930 -24.924  0.00  0.00    -0.101 Cl
ATOM      7  C5  <0> d          11.857  52.898 -27.584  0.00  0.00     0.042 C 
ATOM      8  C6  <0> d          11.365  54.244 -28.082  0.00  0.00    -0.075 C 
ATOM      9  C7  <0> d          11.809  55.449 -27.848  0.00  0.00     0.003 C 
ATOM     10  C8  <0> d          11.095  56.615 -28.368  0.00  0.00     0.000 C 
ATOM     11  C9  <0> d           9.776  56.777 -28.411  0.00  0.00     0.000 C 
ATOM     12  C10 <0> d           8.826  55.811 -27.871  0.00  0.00     0.003 C 
ATOM     13  C11 <0> d           9.036  54.522 -28.016  0.00  0.00    -0.075 C 
ATOM     14  C12 <0> d          10.136  54.136 -29.011  0.00  0.00     0.068 C 
ENDROOT
TORSDOF 0
ENDMDL
MODEL 4
REMARK VINA RESULT:      -5.5     24.305     25.272
REMARK  0 active torsions:
REMARK  status: ('A' for Active; 'I' for Inactive)
ROOT
ATOM      1  C1  <0> d          24.764  69.776 -25.427  0.00  0.00     0.042 C 
ATOM      2  C2  <0> d          25.764  69.250 -26.412  0.00  0.00     0.036 A 
ATOM      3  C3  <0> d          26.993  70.134 -26.670  0.00  0.00     0.036 A 
ATOM      4  C4  <0> d          26.229  69.569 -27.804  0.00  0.00     0.122 A 
ATOM      5 Cl1  <0> d          25.202  70.705 -28.755  0.00  0.00    -0.101 Cl
ATOM      6 Cl2  <0> d          27.020  68.260 -28.759  0.00  0.00    -0.101 Cl
ATOM      7  C5  <0> d          28.265  69.741 -25.941  0.00  0.00     0.042 C 
ATOM      8  C6  <0> d          27.837  69.729 -24.485  0.00  0.00    -0.075 C 
ATOM      9  C7  <0> d          28.216  68.967 -23.496  0.00  0.00     0.003 C 
ATOM     10  C8  <0> d          27.575  69.082 -22.186  0.00  0.00     0.000 C 
ATOM     11  C9  <0> d          26.279  69.262 -21.955  0.00  0.00     0.000 C 
ATOM     12  C10 <0> d          25.270  69.311 -23.008  0.00  0.00     0.003 C 
ATOM     13  C11 <0> d          25.524  69.924 -24.142  0.00  0.00    -0.075 C 
ATOM     14  C12 <0> d          26.778  70.804 -24.154  0.00  0.00     0.068 C 
ENDROOT
TORSDOF 0
ENDMDL
MODEL 5
REMARK VINA RESULT:      -5.4     45.273     46.391
REMARK  0 active torsions:
REMARK  status: ('A' for Active; 'I' for Inactive)
ROOT
ATOM      1  C1  <0> d          46.144  77.157 -35.247  0.00  0.00     0.042 C 
ATOM      2  C2  <0> d          46.777  78.516 -35.288  0.00  0.00     0.036 A 
ATOM      3  C3  <0> d          46.389  79.480 -34.158  0.00  0.00     0.036 A 
ATOM      4  C4  <0> d          46.358  79.931 -35.567  0.00  0.00     0.122 A 
ATOM      5 Cl1  <0> d          44.739  80.156 -36.326  0.00  0.00    -0.101 Cl
ATOM      6 Cl2  <0> d          47.623  81.107 -36.082  0.00  0.00    -0.101 Cl
ATOM      7  C5  <0> d          47.383  79.611 -33.018  0.00  0.00     0.042 C 
ATOM      8  C6  <0> d          47.554  78.179 -32.546  0.00  0.00    -0.075 C 
ATOM      9  C7  <0> d          48.601  77.562 -32.070  0.00  0.00     0.003 C 
ATOM     10  C8  <0> d          48.546  76.131 -31.773  0.00  0.00     0.000 C 
ATOM     11  C9  <0> d          47.945  75.197 -32.503  0.00  0.00     0.000 C 
ATOM     12  C10 <0> d          47.288  75.467 -33.778  0.00  0.00     0.003 C 
ATOM     13  C11 <0> d          46.583  76.564 -33.941  0.00  0.00    -0.075 C 
ATOM     14  C12 <0> d          46.261  77.343 -32.662  0.00  0.00     0.068 C 
ENDROOT
TORSDOF 0
ENDMDL
MODEL 6
REMARK VINA RESULT:      -5.4     12.559     14.443
REMARK  0 active torsions:
REMARK  status: ('A' for Active; 'I' for Inactive)
ROOT
ATOM      1  C1  <0> d          23.985  55.587 -31.754  0.00  0.00     0.042 C 
ATOM      2  C2  <0> d          23.882  54.495 -30.732  0.00  0.00     0.036 A 
ATOM      3  C3  <0> d          23.562  54.937 -29.297  0.00  0.00     0.036 A 
ATOM      4  C4  <0> d          24.670  53.992 -29.558  0.00  0.00     0.122 A 
ATOM      5 Cl1  <0> d          26.350  54.622 -29.387  0.00  0.00    -0.101 Cl
ATOM      6 Cl2  <0> d          24.432  52.281 -29.042  0.00  0.00    -0.101 Cl
ATOM      7  C5  <0> d          22.117  54.789 -28.857  0.00  0.00     0.042 C 
ATOM      8  C6  <0> d          21.357  55.580 -29.905  0.00  0.00    -0.075 C 
ATOM      9  C7  <0> d          20.178  55.380 -30.429  0.00  0.00     0.003 C 
ATOM     10  C8  <0> d          19.694  56.236 -31.513  0.00  0.00     0.000 C 
ATOM     11  C9  <0> d          20.410  56.694 -32.535  0.00  0.00     0.000 C 
ATOM     12  C10 <0> d          21.809  56.347 -32.761  0.00  0.00     0.003 C 
ATOM     13  C11 <0> d          22.642  56.254 -31.748  0.00  0.00    -0.075 C 
ATOM     14  C12 <0> d          22.132  56.815 -30.416  0.00  0.00     0.068 C 
ENDROOT
TORSDOF 0
ENDMDL
MODEL 7
REMARK VINA RESULT:      -5.3     13.879     15.682
REMARK  0 active torsions:
REMARK  status: ('A' for Active; 'I' for Inactive)
ROOT
ATOM      1  C1  <0> d          24.498  54.611 -32.385  0.00  0.00     0.042 C 
ATOM      2  C2  <0> d          24.855  53.278 -31.801  0.00  0.00     0.036 A 
ATOM      3  C3  <0> d          25.818  53.295 -30.606  0.00  0.00     0.036 A 
ATOM      4  C4  <0> d          26.053  52.374 -31.739  0.00  0.00     0.122 A 
ATOM      5 Cl1  <0> d          27.415  52.766 -32.853  0.00  0.00    -0.101 Cl
ATOM      6 Cl2  <0> d          25.780  50.617 -31.442  0.00  0.00    -0.101 Cl
ATOM      7  C5  <0> d          25.184  53.157 -29.233  0.00  0.00     0.042 C 
ATOM      8  C6  <0> d          24.178  54.292 -29.203  0.00  0.00    -0.075 C 
ATOM      9  C7  <0> d          23.001  54.369 -28.643  0.00  0.00     0.003 C 
ATOM     10  C8  <0> d          22.163  55.551 -28.841  0.00  0.00     0.000 C 
ATOM     11  C9  <0> d          22.008  56.227 -29.975  0.00  0.00     0.000 C 
ATOM     12  C10 <0> d          22.624  55.836 -31.239  0.00  0.00     0.003 C 
ATOM     13  C11 <0> d          23.851  55.367 -31.262  0.00  0.00    -0.075 C 
ATOM     14  C12 <0> d          24.654  55.546 -29.969  0.00  0.00     0.068 C 
ENDROOT
TORSDOF 0
ENDMDL
MODEL 8
REMARK VINA RESULT:      -5.3     11.783     13.357
REMARK  0 active torsions:
REMARK  status: ('A' for Active; 'I' for Inactive)
ROOT
ATOM      1  C1  <0> d          21.750  53.087 -30.501  0.00  0.00     0.042 C 
ATOM      2  C2  <0> d          21.453  54.487 -30.947  0.00  0.00     0.036 A 
ATOM      3  C3  <0> d          21.299  55.536 -29.836  0.00  0.00     0.036 A 
ATOM      4  C4  <0> d          20.294  55.442 -30.918  0.00  0.00     0.122 A 
ATOM      5 Cl1  <0> d          18.687  54.746 -30.493  0.00  0.00    -0.101 Cl
ATOM      6 Cl2  <0> d          20.261  56.778 -32.128  0.00  0.00    -0.101 Cl
ATOM      7  C5  <0> d          22.507  56.418 -29.577  0.00  0.00     0.042 C 
ATOM      8  C6  <0> d          23.612  55.415 -29.299  0.00  0.00    -0.075 C 
ATOM      9  C7  <0> d          24.886  55.457 -29.580  0.00  0.00     0.003 C 
ATOM     10  C8  <0> d          25.744  54.307 -29.296  0.00  0.00     0.000 C 
ATOM     11  C9  <0> d          25.433  53.027 -29.475  0.00  0.00     0.000 C 
ATOM     12  C10 <0> d          24.172  52.577 -30.057  0.00  0.00     0.003 C 
ATOM     13  C11 <0> d          23.047  53.184 -29.753  0.00  0.00    -0.075 C 
ATOM     14  C12 <0> d          23.114  54.150 -28.566  0.00  0.00     0.068 C 
ENDROOT
TORSDOF 0
ENDMDL
MODEL 9
REMARK VINA RESULT:      -5.2     27.179     28.493
REMARK  0 active torsions:
REMARK  status: ('A' for Active; 'I' for Inactive)
ROOT
ATOM      1  C1  <0> d          29.483  56.065  -6.862  0.00  0.00     0.042 C 
ATOM      2  C2  <0> d          30.150  57.243  -6.218  0.00  0.00     0.036 A 
ATOM      3  C3  <0> d          29.868  58.613  -6.851  0.00  0.00     0.036 A 
ATOM      4  C4  <0> d          31.256  58.208  -6.538  0.00  0.00     0.122 A 
ATOM      5 Cl1  <0> d          32.323  57.778  -7.925  0.00  0.00    -0.101 Cl
ATOM      6 Cl2  <0> d          32.071  59.053  -5.170  0.00  0.00    -0.101 Cl
ATOM      7  C5  <0> d          28.825  59.470  -6.156  0.00  0.00     0.042 C 
ATOM      8  C6  <0> d          27.605  58.567  -6.124  0.00  0.00    -0.075 C 
ATOM      9  C7  <0> d          26.662  58.448  -5.230  0.00  0.00     0.003 C 
ATOM     10  C8  <0> d          25.630  57.421  -5.375  0.00  0.00     0.000 C 
ATOM     11  C9  <0> d          25.813  56.174  -5.797  0.00  0.00     0.000 C 
ATOM     12  C10 <0> d          27.120  55.616  -6.126  0.00  0.00     0.003 C 
ATOM     13  C11 <0> d          28.013  56.346  -6.757  0.00  0.00    -0.075 C 
ATOM     14  C12 <0> d          27.493  57.653  -7.364  0.00  0.00     0.068 C 
ENDROOT
TORSDOF 0
ENDMDL
MODEL 10
REMARK VINA RESULT:      -5.2     27.288     28.448
REMARK  0 active torsions:
REMARK  status: ('A' for Active; 'I' for Inactive)
ROOT
ATOM      1  C1  <0> d          28.867  55.755  -6.690  0.00  0.00     0.042 C 
ATOM      2  C2  <0> d          28.584  56.926  -7.583  0.00  0.00     0.036 A 
ATOM      3  C3  <0> d          28.776  58.317  -6.960  0.00  0.00     0.036 A 
ATOM      4  C4  <0> d          27.542  58.000  -7.714  0.00  0.00     0.122 A 
ATOM      5 Cl1  <0> d          26.029  57.773  -6.761  0.00  0.00    -0.101 Cl
ATOM      6 Cl2  <0> d          27.333  58.792  -9.319  0.00  0.00    -0.101 Cl
ATOM      7  C5  <0> d          30.076  59.026  -7.293  0.00  0.00     0.042 C 
ATOM      8  C6  <0> d          31.133  58.029  -6.857  0.00  0.00    -0.075 C 
ATOM      9  C7  <0> d          32.306  57.760  -7.362  0.00  0.00     0.003 C 
ATOM     10  C8  <0> d          33.115  56.669  -6.818  0.00  0.00     0.000 C 
ATOM     11  C9  <0> d          32.671  55.480  -6.424  0.00  0.00     0.000 C 
ATOM     12  C10 <0> d          31.279  55.059  -6.540  0.00  0.00     0.003 C 
ATOM     13  C11 <0> d          30.306  55.907  -6.294  0.00  0.00    -0.075 C 
ATOM     14  C12 <0> d          30.722  57.214  -5.611  0.00  0.00     0.068 C 
ENDROOT
TORSDOF 0
ENDMDL
