MODEL 1
REMARK VINA RESULT:      -6.8      0.000      0.000
REMARK  0 active torsions:
REMARK  status: ('A' for Active; 'I' for Inactive)
ROOT
ATOM      1  C1  <0> d          31.180  68.924 -22.838  0.00  0.00     0.160 C 
ATOM      2  N1  <0> d          30.703  68.378 -24.111  0.00  0.00    -0.311 N 
ATOM      3  C2  <0> d          31.255  67.241 -24.607  0.00  0.00     0.214 A 
ATOM      4  N2  <0> d          30.868  66.714 -25.732  0.00  0.00    -0.222 NA
ATOM      5  C3  <0> d          29.882  67.284 -26.468  0.00  0.00     0.185 A 
ATOM      6  C4  <0> d          29.281  68.456 -26.004  0.00  0.00     0.153 A 
ATOM      7  C5  <0> d          29.711  69.007 -24.782  0.00  0.00     0.279 A 
ATOM      8  O1  <0> d          29.205  70.025 -24.342  0.00  0.00    -0.265 OA
ATOM      9  N3  <0> d          28.330  68.803 -26.944  0.00  0.00    -0.327 N 
ATOM     10  C6  <0> d          28.371  67.869 -27.915  0.00  0.00     0.109 A 
ATOM     11  N4  <0> d          29.290  66.976 -27.630  0.00  0.00    -0.213 NA
ATOM     12  C7  <0> d          27.341  68.188 -28.981  0.00  0.00     0.080 C 
ATOM     13  C8  <0> d          26.392  69.203 -28.304  0.00  0.00     0.028 C 
ATOM     14  C9  <0> d          27.314  69.826 -27.233  0.00  0.00     0.131 C 
ENDROOT
TORSDOF 0
ENDMDL
MODEL 2
REMARK VINA RESULT:      -6.4      1.371      4.368
REMARK  0 active torsions:
REMARK  status: ('A' for Active; 'I' for Inactive)
ROOT
ATOM      1  C1  <0> d          26.361  71.500 -28.135  0.00  0.00     0.160 C 
ATOM      2  N1  <0> d          27.141  70.287 -27.877  0.00  0.00    -0.311 N 
ATOM      3  C2  <0> d          27.111  69.263 -28.768  0.00  0.00     0.214 A 
ATOM      4  N2  <0> d          27.786  68.165 -28.587  0.00  0.00    -0.222 NA
ATOM      5  C3  <0> d          28.558  67.992 -27.487  0.00  0.00     0.185 A 
ATOM      6  C4  <0> d          28.623  69.014 -26.537  0.00  0.00     0.153 A 
ATOM      7  C5  <0> d          27.890  70.196 -26.754  0.00  0.00     0.279 A 
ATOM      8  O1  <0> d          27.927  71.112 -25.951  0.00  0.00    -0.265 OA
ATOM      9  N3  <0> d          29.470  68.565 -25.541  0.00  0.00    -0.327 N 
ATOM     10  C6  <0> d          29.885  67.334 -25.898  0.00  0.00     0.109 A 
ATOM     11  N4  <0> d          29.343  66.999 -27.045  0.00  0.00    -0.213 NA
ATOM     12  C7  <0> d          30.828  66.783 -24.845  0.00  0.00     0.080 C 
ATOM     13  C8  <0> d          31.249  68.023 -24.024  0.00  0.00     0.028 C 
ATOM     14  C9  <0> d          30.052  68.972 -24.253  0.00  0.00     0.131 C 
ENDROOT
TORSDOF 0
ENDMDL
MODEL 3
REMARK VINA RESULT:      -5.8      1.369      2.290
REMARK  0 active torsions:
REMARK  status: ('A' for Active; 'I' for Inactive)
ROOT
ATOM      1  C1  <0> d          30.565  67.229 -24.651  0.00  0.00     0.160 C 
ATOM      2  N1  <0> d          29.756  67.603 -25.814  0.00  0.00    -0.311 N 
ATOM      3  C2  <0> d          29.828  66.864 -26.951  0.00  0.00     0.214 A 
ATOM      4  N2  <0> d          29.131  67.152 -28.012  0.00  0.00    -0.222 NA
ATOM      5  C3  <0> d          28.291  68.216 -28.029  0.00  0.00     0.185 A 
ATOM      6  C4  <0> d          28.181  69.011 -26.885  0.00  0.00     0.153 A 
ATOM      7  C5  <0> d          28.939  68.678 -25.747  0.00  0.00     0.279 A 
ATOM      8  O1  <0> d          28.865  69.345 -24.729  0.00  0.00    -0.265 OA
ATOM      9  N3  <0> d          27.270  70.004 -27.190  0.00  0.00    -0.327 N 
ATOM     10  C6  <0> d          26.863  69.795 -28.457  0.00  0.00     0.109 A 
ATOM     11  N4  <0> d          27.469  68.740 -28.949  0.00  0.00    -0.213 NA
ATOM     12  C7  <0> d          25.851  70.853 -28.855  0.00  0.00     0.080 C 
ATOM     13  C8  <0> d          25.396  71.469 -27.512  0.00  0.00     0.028 C 
ATOM     14  C9  <0> d          26.615  71.186 -26.608  0.00  0.00     0.131 C 
ENDROOT
TORSDOF 0
ENDMDL
MODEL 4
REMARK VINA RESULT:      -5.5      1.705      4.412
REMARK  0 active torsions:
REMARK  status: ('A' for Active; 'I' for Inactive)
ROOT
ATOM      1  C1  <0> d          26.222  71.902 -24.645  0.00  0.00     0.160 C 
ATOM      2  N1  <0> d          27.055  70.761 -25.031  0.00  0.00    -0.311 N 
ATOM      3  C2  <0> d          26.700  69.996 -26.094  0.00  0.00     0.214 A 
ATOM      4  N2  <0> d          27.404  68.971 -26.479  0.00  0.00    -0.222 NA
ATOM      5  C3  <0> d          28.539  68.619 -25.828  0.00  0.00     0.185 A 
ATOM      6  C4  <0> d          28.950  69.372 -24.725  0.00  0.00     0.153 A 
ATOM      7  C5  <0> d          28.176  70.479 -24.329  0.00  0.00     0.279 A 
ATOM      8  O1  <0> d          28.506  71.164 -23.376  0.00  0.00    -0.265 OA
ATOM      9  N3  <0> d          30.116  68.789 -24.270  0.00  0.00    -0.327 N 
ATOM     10  C6  <0> d          30.379  67.741 -25.076  0.00  0.00     0.109 A 
ATOM     11  N4  <0> d          29.444  67.644 -25.992  0.00  0.00    -0.213 NA
ATOM     12  C7  <0> d          31.658  67.057 -24.632  0.00  0.00     0.080 C 
ATOM     13  C8  <0> d          32.346  68.092 -23.714  0.00  0.00     0.028 C 
ATOM     14  C9  <0> d          31.141  68.925 -23.223  0.00  0.00     0.131 C 
ENDROOT
TORSDOF 0
ENDMDL
MODEL 5
REMARK VINA RESULT:      -5.0     14.555     15.923
REMARK  0 active torsions:
REMARK  status: ('A' for Active; 'I' for Inactive)
ROOT
ATOM      1  C1  <0> d          18.154  56.107 -32.035  0.00  0.00     0.160 C 
ATOM      2  N1  <0> d          19.617  56.145 -31.966  0.00  0.00    -0.311 N 
ATOM      3  C2  <0> d          20.332  56.576 -33.037  0.00  0.00     0.214 A 
ATOM      4  N2  <0> d          21.632  56.629 -33.028  0.00  0.00    -0.222 NA
ATOM      5  C3  <0> d          22.340  56.254 -31.935  0.00  0.00     0.185 A 
ATOM      6  C4  <0> d          21.654  55.802 -30.806  0.00  0.00     0.153 A 
ATOM      7  C5  <0> d          20.247  55.756 -30.834  0.00  0.00     0.279 A 
ATOM      8  O1  <0> d          19.614  55.374 -29.865  0.00  0.00    -0.265 OA
ATOM      9  N3  <0> d          22.617  55.493 -29.864  0.00  0.00    -0.327 N 
ATOM     10  C6  <0> d          23.815  55.758 -30.420  0.00  0.00     0.109 A 
ATOM     11  N4  <0> d          23.647  56.205 -31.642  0.00  0.00    -0.213 NA
ATOM     12  C7  <0> d          24.922  55.445 -29.431  0.00  0.00     0.080 C 
ATOM     13  C8  <0> d          24.202  55.359 -28.067  0.00  0.00     0.028 C 
ATOM     14  C9  <0> d          22.767  54.981 -28.493  0.00  0.00     0.131 C 
ENDROOT
TORSDOF 0
ENDMDL
MODEL 6
REMARK VINA RESULT:      -5.0      2.940      5.461
REMARK  0 active torsions:
REMARK  status: ('A' for Active; 'I' for Inactive)
ROOT
ATOM      1  C1  <0> d          24.046  71.074 -28.906  0.00  0.00     0.160 C 
ATOM      2  N1  <0> d          25.315  70.796 -28.229  0.00  0.00    -0.311 N 
ATOM      3  C2  <0> d          26.483  70.909 -28.914  0.00  0.00     0.214 A 
ATOM      4  N2  <0> d          27.637  70.674 -28.360  0.00  0.00    -0.222 NA
ATOM      5  C3  <0> d          27.727  70.304 -27.060  0.00  0.00     0.185 A 
ATOM      6  C4  <0> d          26.556  70.172 -26.310  0.00  0.00     0.153 A 
ATOM      7  C5  <0> d          25.317  70.436 -26.926  0.00  0.00     0.279 A 
ATOM      8  O1  <0> d          24.275  70.338 -26.302  0.00  0.00    -0.265 OA
ATOM      9  N3  <0> d          26.948  69.789 -25.042  0.00  0.00    -0.327 N 
ATOM     10  C6  <0> d          28.293  69.705 -25.050  0.00  0.00     0.109 A 
ATOM     11  N4  <0> d          28.748  70.008 -26.243  0.00  0.00    -0.213 NA
ATOM     12  C7  <0> d          28.792  69.292 -23.678  0.00  0.00     0.080 C 
ATOM     13  C8  <0> d          27.591  69.554 -22.741  0.00  0.00     0.028 C 
ATOM     14  C9  <0> d          26.401  69.448 -23.720  0.00  0.00     0.131 C 
ENDROOT
TORSDOF 0
ENDMDL
MODEL 7
REMARK VINA RESULT:      -4.9     21.279     22.552
REMARK  0 active torsions:
REMARK  status: ('A' for Active; 'I' for Inactive)
ROOT
ATOM      1  C1  <0> d          32.344  57.630  -7.966  0.00  0.00     0.160 C 
ATOM      2  N1  <0> d          31.059  58.088  -7.429  0.00  0.00    -0.311 N 
ATOM      3  C2  <0> d          30.826  59.417  -7.281  0.00  0.00     0.214 A 
ATOM      4  N2  <0> d          29.703  59.876  -6.811  0.00  0.00    -0.222 NA
ATOM      5  C3  <0> d          28.703  59.037  -6.444  0.00  0.00     0.185 A 
ATOM      6  C4  <0> d          28.892  57.660  -6.574  0.00  0.00     0.153 A 
ATOM      7  C5  <0> d          30.112  57.184  -7.091  0.00  0.00     0.279 A 
ATOM      8  O1  <0> d          30.311  55.989  -7.225  0.00  0.00    -0.265 OA
ATOM      9  N3  <0> d          27.727  57.065  -6.129  0.00  0.00    -0.327 N 
ATOM     10  C6  <0> d          26.891  58.054  -5.758  0.00  0.00     0.109 A 
ATOM     11  N4  <0> d          27.473  59.217  -5.944  0.00  0.00    -0.213 NA
ATOM     12  C7  <0> d          25.584  57.466  -5.263  0.00  0.00     0.080 C 
ATOM     13  C8  <0> d          25.597  56.012  -5.786  0.00  0.00     0.028 C 
ATOM     14  C9  <0> d          27.111  55.744  -5.928  0.00  0.00     0.131 C 
ENDROOT
TORSDOF 0
ENDMDL
MODEL 8
REMARK VINA RESULT:      -4.8     14.267     15.713
REMARK  0 active torsions:
REMARK  status: ('A' for Active; 'I' for Inactive)
ROOT
ATOM      1  C1  <0> d          24.389  55.385 -34.732  0.00  0.00     0.160 C 
ATOM      2  N1  <0> d          24.533  54.825 -33.386  0.00  0.00    -0.311 N 
ATOM      3  C2  <0> d          25.216  53.666 -33.207  0.00  0.00     0.214 A 
ATOM      4  N2  <0> d          25.373  53.126 -32.033  0.00  0.00    -0.222 NA
ATOM      5  C3  <0> d          24.856  53.706 -30.923  0.00  0.00     0.185 A 
ATOM      6  C4  <0> d          24.142  54.900 -31.051  0.00  0.00     0.153 A 
ATOM      7  C5  <0> d          23.989  55.470 -32.329  0.00  0.00     0.279 A 
ATOM      8  O1  <0> d          23.378  56.514 -32.479  0.00  0.00    -0.265 OA
ATOM      9  N3  <0> d          23.740  55.250 -29.776  0.00  0.00    -0.327 N 
ATOM     10  C6  <0> d          24.203  54.302 -28.938  0.00  0.00     0.109 A 
ATOM     11  N4  <0> d          24.859  53.392 -29.620  0.00  0.00    -0.213 NA
ATOM     12  C7  <0> d          23.799  54.631 -27.514  0.00  0.00     0.080 C 
ATOM     13  C8  <0> d          23.397  56.122 -27.566  0.00  0.00     0.028 C 
ATOM     14  C9  <0> d          22.991  56.285 -29.047  0.00  0.00     0.131 C 
ENDROOT
TORSDOF 0
ENDMDL
MODEL 9
REMARK VINA RESULT:      -4.8     14.199     15.415
REMARK  0 active torsions:
REMARK  status: ('A' for Active; 'I' for Inactive)
ROOT
ATOM      1  C1  <0> d          25.619  55.716 -29.385  0.00  0.00     0.160 C 
ATOM      2  N1  <0> d          24.160  55.616 -29.470  0.00  0.00    -0.311 N 
ATOM      3  C2  <0> d          23.436  55.350 -28.353  0.00  0.00     0.214 A 
ATOM      4  N2  <0> d          22.138  55.251 -28.373  0.00  0.00    -0.222 NA
ATOM      5  C3  <0> d          21.443  55.413 -29.525  0.00  0.00     0.185 A 
ATOM      6  C4  <0> d          22.139  55.687 -30.705  0.00  0.00     0.153 A 
ATOM      7  C5  <0> d          23.542  55.795 -30.660  0.00  0.00     0.279 A 
ATOM      8  O1  <0> d          24.183  56.040 -31.667  0.00  0.00    -0.265 OA
ATOM      9  N3  <0> d          21.188  55.797 -31.701  0.00  0.00    -0.327 N 
ATOM     10  C6  <0> d          19.985  55.600 -31.125  0.00  0.00     0.109 A 
ATOM     11  N4  <0> d          20.141  55.371 -29.842  0.00  0.00    -0.213 NA
ATOM     12  C7  <0> d          18.890  55.715 -32.168  0.00  0.00     0.080 C 
ATOM     13  C8  <0> d          19.571  56.425 -33.360  0.00  0.00     0.028 C 
ATOM     14  C9  <0> d          21.053  56.049 -33.143  0.00  0.00     0.131 C 
ENDROOT
TORSDOF 0
ENDMDL
MODEL 10
REMARK VINA RESULT:      -4.7     21.469     23.338
REMARK  0 active torsions:
REMARK  status: ('A' for Active; 'I' for Inactive)
ROOT
ATOM      1  C1  <0> d          27.185  52.829  -4.519  0.00  0.00     0.160 C 
ATOM      2  N1  <0> d          27.952  53.829  -5.267  0.00  0.00    -0.311 N 
ATOM      3  C2  <0> d          29.274  53.627  -5.504  0.00  0.00     0.214 A 
ATOM      4  N2  <0> d          30.000  54.482  -6.163  0.00  0.00    -0.222 NA
ATOM      5  C3  <0> d          29.462  55.626  -6.650  0.00  0.00     0.185 A 
ATOM      6  C4  <0> d          28.106  55.885  -6.434  0.00  0.00     0.153 A 
ATOM      7  C5  <0> d          27.337  54.944  -5.723  0.00  0.00     0.279 A 
ATOM      8  O1  <0> d          26.150  55.131  -5.520  0.00  0.00    -0.265 OA
ATOM      9  N3  <0> d          27.843  57.102  -7.032  0.00  0.00    -0.327 N 
ATOM     10  C6  <0> d          28.996  57.535  -7.578  0.00  0.00     0.109 A 
ATOM     11  N4  <0> d          29.949  56.662  -7.349  0.00  0.00    -0.213 NA
ATOM     12  C7  <0> d          28.774  58.872  -8.260  0.00  0.00     0.080 C 
ATOM     13  C8  <0> d          27.239  58.973  -8.410  0.00  0.00     0.028 C 
ATOM     14  C9  <0> d          26.752  58.061  -7.263  0.00  0.00     0.131 C 
ENDROOT
TORSDOF 0
ENDMDL
