MODEL 1
REMARK VINA RESULT:      -7.4      0.000      0.000
REMARK  4 active torsions:
REMARK  status: ('A' for Active; 'I' for Inactive)
REMARK    1  A    between atoms: N2_4  and  C12_19 
REMARK    2  A    between atoms: C4_7  and  N3_8 
REMARK    3  A    between atoms: N4_9  and  C5_10 
REMARK    4  A    between atoms: C10_15  and  O2_16 
ROOT
ATOM      1  C1  <0> d          31.391  70.015 -17.221  0.00  0.00     0.070 C 
ATOM      2  C2  <0> d          30.776  71.146 -18.005  0.00  0.00     0.065 A 
ATOM      3  N1  <0> d          30.963  72.392 -17.810  0.00  0.00    -0.171 NA
ATOM      4  N2  <0> d          30.252  73.197 -18.694  0.00  0.00    -0.199 N 
ATOM      5  C3  <0> d          29.528  72.452 -19.556  0.00  0.00     0.277 A 
ATOM      6  O1  <0> d          28.805  72.846 -20.447  0.00  0.00    -0.268 OA
ATOM      7  C4  <0> d          29.817  71.014 -19.169  0.00  0.00     0.273 A 
ENDROOT
BRANCH   7   8
ATOM      8  N3  <0> d          30.447  70.295 -20.279  0.00  0.00    -0.171 NA
ATOM      9  N4  <0> d          31.310  70.856 -20.971  0.00  0.00    -0.152 NA
BRANCH   9  10
ATOM     10  C5  <0> d          31.898  70.184 -22.007  0.00  0.00     0.113 A 
ATOM     11  C10 <0> d          33.161  70.573 -22.473  0.00  0.00     0.098 A 
ATOM     12  C9  <0> d          33.753  69.882 -23.518  0.00  0.00     0.041 A 
ATOM     13  C8  <0> d          33.092  68.822 -24.108  0.00  0.00     0.026 A 
ATOM     14  C7  <0> d          31.839  68.437 -23.656  0.00  0.00     0.036 A 
ATOM     15  C6  <0> d          31.240  69.110 -22.612  0.00  0.00     0.060 A 
ATOM     16 Cl1  <0> d          31.022  67.103 -24.407  0.00  0.00    -0.084 Cl
BRANCH  11  17
ATOM     17  O2  <0> d          33.807  71.619 -21.896  0.00  0.00    -0.354 OA
ATOM     18  C11 <0> d          33.583  72.912 -22.461  0.00  0.00     0.210 C 
ENDBRANCH  11  17
ENDBRANCH   9  10
ENDBRANCH   7   8
BRANCH   4  19
ATOM     19  C12 <0> d          30.284  74.596 -18.692  0.00  0.00     0.061 A 
ATOM     20  C17 <0> d          29.183  75.318 -18.252  0.00  0.00     0.032 A 
ATOM     21  C16 <0> d          29.218  76.699 -18.252  0.00  0.00     0.002 A 
ATOM     22  C15 <0> d          30.349  77.362 -18.690  0.00  0.00     0.000 A 
ATOM     23  C14 <0> d          31.448  76.647 -19.130  0.00  0.00     0.002 A 
ATOM     24  C13 <0> d          31.422  75.266 -19.126  0.00  0.00     0.032 A 
ENDBRANCH   4  19
TORSDOF 4
ENDMDL
MODEL 2
REMARK VINA RESULT:      -7.3      3.360      5.030
REMARK  4 active torsions:
REMARK  status: ('A' for Active; 'I' for Inactive)
REMARK    1  A    between atoms: N2_4  and  C12_19 
REMARK    2  A    between atoms: C4_7  and  N3_8 
REMARK    3  A    between atoms: N4_9  and  C5_10 
REMARK    4  A    between atoms: C10_15  and  O2_16 
ROOT
ATOM      1  C1  <0> d          26.200  71.470 -21.960  0.00  0.00     0.070 C 
ATOM      2  C2  <0> d          27.616  71.288 -21.478  0.00  0.00     0.065 A 
ATOM      3  N1  <0> d          27.977  70.841 -20.340  0.00  0.00    -0.171 NA
ATOM      4  N2  <0> d          29.359  70.794 -20.183  0.00  0.00    -0.199 N 
ATOM      5  C3  <0> d          29.989  71.239 -21.291  0.00  0.00     0.277 A 
ATOM      6  O1  <0> d          31.185  71.324 -21.476  0.00  0.00    -0.268 OA
ATOM      7  C4  <0> d          28.877  71.608 -22.254  0.00  0.00     0.273 A 
ENDROOT
BRANCH   7   8
ATOM      8  N3  <0> d          28.954  70.797 -23.471  0.00  0.00    -0.171 NA
ATOM      9  N4  <0> d          29.285  69.604 -23.401  0.00  0.00    -0.152 NA
BRANCH   9  10
ATOM     10  C5  <0> d          29.357  68.847 -24.539  0.00  0.00     0.113 A 
ATOM     11  C10 <0> d          30.214  67.740 -24.595  0.00  0.00     0.098 A 
ATOM     12  C9  <0> d          30.275  66.975 -25.748  0.00  0.00     0.041 A 
ATOM     13  C8  <0> d          29.504  67.312 -26.844  0.00  0.00     0.026 A 
ATOM     14  C7  <0> d          28.659  68.410 -26.796  0.00  0.00     0.036 A 
ATOM     15  C6  <0> d          28.582  69.177 -25.652  0.00  0.00     0.060 A 
ATOM     16 Cl1  <0> d          27.695  68.820 -28.179  0.00  0.00    -0.084 Cl
BRANCH  11  17
ATOM     17  O2  <0> d          30.976  67.413 -23.520  0.00  0.00    -0.354 OA
ATOM     18  C11 <0> d          32.379  67.669 -23.616  0.00  0.00     0.210 C 
ENDBRANCH  11  17
ENDBRANCH   9  10
ENDBRANCH   7   8
BRANCH   4  19
ATOM     19  C12 <0> d          30.010  70.342 -19.029  0.00  0.00     0.061 A 
ATOM     20  C17 <0> d          29.981  68.995 -18.696  0.00  0.00     0.032 A 
ATOM     21  C16 <0> d          30.624  68.553 -17.556  0.00  0.00     0.002 A 
ATOM     22  C15 <0> d          31.294  69.451 -16.746  0.00  0.00     0.000 A 
ATOM     23  C14 <0> d          31.324  70.795 -17.075  0.00  0.00     0.002 A 
ATOM     24  C13 <0> d          30.689  71.242 -18.217  0.00  0.00     0.032 A 
ENDBRANCH   4  19
TORSDOF 4
ENDMDL
MODEL 3
REMARK VINA RESULT:      -6.7      1.440      1.790
REMARK  4 active torsions:
REMARK  status: ('A' for Active; 'I' for Inactive)
REMARK    1  A    between atoms: N2_4  and  C12_19 
REMARK    2  A    between atoms: C4_7  and  N3_8 
REMARK    3  A    between atoms: N4_9  and  C5_10 
REMARK    4  A    between atoms: C10_15  and  O2_16 
ROOT
ATOM      1  C1  <0> d          31.250  69.962 -17.576  0.00  0.00     0.070 C 
ATOM      2  C2  <0> d          30.504  71.165 -18.092  0.00  0.00     0.065 A 
ATOM      3  N1  <0> d          30.878  72.381 -18.009  0.00  0.00    -0.171 NA
ATOM      4  N2  <0> d          29.971  73.273 -18.574  0.00  0.00    -0.199 N 
ATOM      5  C3  <0> d          28.903  72.623 -19.081  0.00  0.00     0.277 A 
ATOM      6  O1  <0> d          27.941  73.108 -19.639  0.00  0.00    -0.268 OA
ATOM      7  C4  <0> d          29.167  71.156 -18.803  0.00  0.00     0.273 A 
ENDROOT
BRANCH   7   8
ATOM      8  N3  <0> d          29.251  70.398 -20.053  0.00  0.00    -0.171 NA
ATOM      9  N4  <0> d          29.930  70.831 -20.996  0.00  0.00    -0.152 NA
BRANCH   9  10
ATOM     10  C5  <0> d          30.009  70.122 -22.164  0.00  0.00     0.113 A 
ATOM     11  C10 <0> d          31.219  69.525 -22.545  0.00  0.00     0.098 A 
ATOM     12  C9  <0> d          31.287  68.803 -23.725  0.00  0.00     0.041 A 
ATOM     13  C8  <0> d          30.171  68.684 -24.530  0.00  0.00     0.026 A 
ATOM     14  C7  <0> d          28.974  69.278 -24.161  0.00  0.00     0.036 A 
ATOM     15  C6  <0> d          28.887  69.995 -22.986  0.00  0.00     0.060 A 
ATOM     16 Cl1  <0> d          27.580  69.120 -25.182  0.00  0.00    -0.084 Cl
BRANCH  11  17
ATOM     17  O2  <0> d          32.317  69.647 -21.756  0.00  0.00    -0.354 OA
ATOM     18  C11 <0> d          33.494  70.186 -22.361  0.00  0.00     0.210 C 
ENDBRANCH  11  17
ENDBRANCH   9  10
ENDBRANCH   7   8
BRANCH   4  19
ATOM     19  C12 <0> d          30.147  74.661 -18.614  0.00  0.00     0.061 A 
ATOM     20  C17 <0> d          29.170  75.501 -18.096  0.00  0.00     0.032 A 
ATOM     21  C16 <0> d          29.346  76.870 -18.138  0.00  0.00     0.002 A 
ATOM     22  C15 <0> d          30.493  77.405 -18.695  0.00  0.00     0.000 A 
ATOM     23  C14 <0> d          31.468  76.571 -19.212  0.00  0.00     0.002 A 
ATOM     24  C13 <0> d          31.301  75.201 -19.167  0.00  0.00     0.032 A 
ENDBRANCH   4  19
TORSDOF 4
ENDMDL
MODEL 4
REMARK VINA RESULT:      -6.7      6.542      8.928
REMARK  4 active torsions:
REMARK  status: ('A' for Active; 'I' for Inactive)
REMARK    1  A    between atoms: N2_4  and  C12_19 
REMARK    2  A    between atoms: C4_7  and  N3_8 
REMARK    3  A    between atoms: N4_9  and  C5_10 
REMARK    4  A    between atoms: C10_15  and  O2_16 
ROOT
ATOM      1  C1  <0> d          25.754  69.398 -21.197  0.00  0.00     0.070 C 
ATOM      2  C2  <0> d          26.798  69.459 -22.282  0.00  0.00     0.065 A 
ATOM      3  N1  <0> d          27.920  68.854 -22.288  0.00  0.00    -0.171 NA
ATOM      4  N2  <0> d          28.675  69.111 -23.427  0.00  0.00    -0.199 N 
ATOM      5  C3  <0> d          28.026  69.951 -24.261  0.00  0.00     0.277 A 
ATOM      6  O1  <0> d          28.410  70.369 -25.334  0.00  0.00    -0.268 OA
ATOM      7  C4  <0> d          26.713  70.256 -23.566  0.00  0.00     0.273 A 
ENDROOT
BRANCH   7   8
ATOM      8  N3  <0> d          25.580  69.807 -24.378  0.00  0.00    -0.171 NA
ATOM      9  N4  <0> d          25.256  70.440 -25.395  0.00  0.00    -0.152 NA
BRANCH   9  10
ATOM     10  C5  <0> d          24.197  70.020 -26.153  0.00  0.00     0.113 A 
ATOM     11  C10 <0> d          24.377  69.023 -27.122  0.00  0.00     0.098 A 
ATOM     12  C9  <0> d          23.297  68.599 -27.880  0.00  0.00     0.041 A 
ATOM     13  C8  <0> d          22.052  69.166 -27.690  0.00  0.00     0.026 A 
ATOM     14  C7  <0> d          21.870  70.157 -26.738  0.00  0.00     0.036 A 
ATOM     15  C6  <0> d          22.934  70.586 -25.970  0.00  0.00     0.060 A 
ATOM     16 Cl1  <0> d          20.301  70.860 -26.510  0.00  0.00    -0.084 Cl
BRANCH  11  17
ATOM     17  O2  <0> d          25.602  68.470 -27.312  0.00  0.00    -0.354 OA
ATOM     18  C11 <0> d          26.371  68.958 -28.413  0.00  0.00     0.210 C 
ENDBRANCH  11  17
ENDBRANCH   9  10
ENDBRANCH   7   8
BRANCH   4  19
ATOM     19  C12 <0> d          29.941  68.569 -23.677  0.00  0.00     0.061 A 
ATOM     20  C17 <0> d          31.065  69.113 -23.069  0.00  0.00     0.032 A 
ATOM     21  C16 <0> d          32.312  68.576 -23.319  0.00  0.00     0.002 A 
ATOM     22  C15 <0> d          32.444  67.498 -24.175  0.00  0.00     0.000 A 
ATOM     23  C14 <0> d          31.327  66.954 -24.783  0.00  0.00     0.002 A 
ATOM     24  C13 <0> d          30.076  67.482 -24.532  0.00  0.00     0.032 A 
ENDBRANCH   4  19
TORSDOF 4
ENDMDL
MODEL 5
REMARK VINA RESULT:      -6.7      3.269      6.739
REMARK  4 active torsions:
REMARK  status: ('A' for Active; 'I' for Inactive)
REMARK    1  A    between atoms: N2_4  and  C12_19 
REMARK    2  A    between atoms: C4_7  and  N3_8 
REMARK    3  A    between atoms: N4_9  and  C5_10 
REMARK    4  A    between atoms: C10_15  and  O2_16 
ROOT
ATOM      1  C1  <0> d          28.435  69.232 -18.685  0.00  0.00     0.070 C 
ATOM      2  C2  <0> d          29.142  69.362 -20.010  0.00  0.00     0.065 A 
ATOM      3  N1  <0> d          28.623  69.199 -21.164  0.00  0.00    -0.171 NA
ATOM      4  N2  <0> d          29.531  69.381 -22.202  0.00  0.00    -0.199 N 
ATOM      5  C3  <0> d          30.756  69.691 -21.728  0.00  0.00     0.277 A 
ATOM      6  O1  <0> d          31.762  69.911 -22.370  0.00  0.00    -0.268 OA
ATOM      7  C4  <0> d          30.602  69.705 -20.220  0.00  0.00     0.273 A 
ENDROOT
BRANCH   7   8
ATOM      8  N3  <0> d          30.902  71.033 -19.680  0.00  0.00    -0.171 NA
ATOM      9  N4  <0> d          30.303  72.029 -20.113  0.00  0.00    -0.152 NA
BRANCH   9  10
ATOM     10  C5  <0> d          30.585  73.269 -19.608  0.00  0.00     0.113 A 
ATOM     11  C10 <0> d          31.637  74.025 -20.144  0.00  0.00     0.098 A 
ATOM     12  C9  <0> d          31.910  75.283 -19.631  0.00  0.00     0.041 A 
ATOM     13  C8  <0> d          31.159  75.782 -18.586  0.00  0.00     0.026 A 
ATOM     14  C7  <0> d          30.122  75.036 -18.047  0.00  0.00     0.036 A 
ATOM     15  C6  <0> d          29.833  73.785 -18.551  0.00  0.00     0.060 A 
ATOM     16 Cl1  <0> d          29.186  75.677 -16.734  0.00  0.00    -0.084 Cl
BRANCH  11  17
ATOM     17  O2  <0> d          32.379  73.531 -21.168  0.00  0.00    -0.354 OA
ATOM     18  C11 <0> d          33.516  74.296 -21.574  0.00  0.00     0.210 C 
ENDBRANCH  11  17
ENDBRANCH   9  10
ENDBRANCH   7   8
BRANCH   4  19
ATOM     19  C12 <0> d          29.214  69.261 -23.560  0.00  0.00     0.061 A 
ATOM     20  C17 <0> d          28.348  70.168 -24.156  0.00  0.00     0.032 A 
ATOM     21  C16 <0> d          28.037  70.045 -25.496  0.00  0.00     0.002 A 
ATOM     22  C15 <0> d          28.586  69.020 -26.244  0.00  0.00     0.000 A 
ATOM     23  C14 <0> d          29.449  68.114 -25.654  0.00  0.00     0.002 A 
ATOM     24  C13 <0> d          29.769  68.235 -24.316  0.00  0.00     0.032 A 
ENDBRANCH   4  19
TORSDOF 4
ENDMDL
MODEL 6
REMARK VINA RESULT:      -6.5      4.002      7.005
REMARK  4 active torsions:
REMARK  status: ('A' for Active; 'I' for Inactive)
REMARK    1  A    between atoms: N2_4  and  C12_19 
REMARK    2  A    between atoms: C4_7  and  N3_8 
REMARK    3  A    between atoms: N4_9  and  C5_10 
REMARK    4  A    between atoms: C10_15  and  O2_16 
ROOT
ATOM      1  C1  <0> d          29.526  71.130 -17.564  0.00  0.00     0.070 C 
ATOM      2  C2  <0> d          29.822  71.243 -19.038  0.00  0.00     0.065 A 
ATOM      3  N1  <0> d          30.706  70.590 -19.685  0.00  0.00    -0.171 NA
ATOM      4  N2  <0> d          30.747  70.917 -21.037  0.00  0.00    -0.199 N 
ATOM      5  C3  <0> d          29.827  71.857 -21.338  0.00  0.00     0.277 A 
ATOM      6  O1  <0> d          29.607  72.354 -22.423  0.00  0.00    -0.268 OA
ATOM      7  C4  <0> d          29.128  72.157 -20.026  0.00  0.00     0.273 A 
ENDROOT
BRANCH   7   8
ATOM      8  N3  <0> d          27.702  71.835 -20.113  0.00  0.00    -0.171 NA
ATOM      9  N4  <0> d          27.342  70.699 -20.457  0.00  0.00    -0.152 NA
BRANCH   9  10
ATOM     10  C5  <0> d          26.010  70.399 -20.538  0.00  0.00     0.113 A 
ATOM     11  C10 <0> d          25.578  69.071 -20.415  0.00  0.00     0.098 A 
ATOM     12  C9  <0> d          24.226  68.778 -20.491  0.00  0.00     0.041 A 
ATOM     13  C8  <0> d          23.309  69.789 -20.701  0.00  0.00     0.026 A 
ATOM     14  C7  <0> d          23.731  71.103 -20.830  0.00  0.00     0.036 A 
ATOM     15  C6  <0> d          25.073  71.412 -20.750  0.00  0.00     0.060 A 
ATOM     16 Cl1  <0> d          22.567  72.363 -21.093  0.00  0.00    -0.084 Cl
BRANCH  11  17
ATOM     17  O2  <0> d          26.480  68.077 -20.214  0.00  0.00    -0.354 OA
ATOM     18  C11 <0> d          26.093  67.016 -19.338  0.00  0.00     0.210 C 
ENDBRANCH  11  17
ENDBRANCH   9  10
ENDBRANCH   7   8
BRANCH   4  19
ATOM     19  C12 <0> d          31.626  70.343 -21.963  0.00  0.00     0.061 A 
ATOM     20  C17 <0> d          32.858  70.933 -22.212  0.00  0.00     0.032 A 
ATOM     21  C16 <0> d          33.722  70.365 -23.127  0.00  0.00     0.002 A 
ATOM     22  C15 <0> d          33.361  69.211 -23.797  0.00  0.00     0.000 A 
ATOM     23  C14 <0> d          32.134  68.621 -23.552  0.00  0.00     0.002 A 
ATOM     24  C13 <0> d          31.268  69.180 -22.633  0.00  0.00     0.032 A 
ENDBRANCH   4  19
TORSDOF 4
ENDMDL
MODEL 7
REMARK VINA RESULT:      -6.4      5.359      7.215
REMARK  4 active torsions:
REMARK  status: ('A' for Active; 'I' for Inactive)
REMARK    1  A    between atoms: N2_4  and  C12_19 
REMARK    2  A    between atoms: C4_7  and  N3_8 
REMARK    3  A    between atoms: N4_9  and  C5_10 
REMARK    4  A    between atoms: C10_15  and  O2_16 
ROOT
ATOM      1  C1  <0> d          26.155  68.480 -20.950  0.00  0.00     0.070 C 
ATOM      2  C2  <0> d          27.210  69.372 -21.552  0.00  0.00     0.065 A 
ATOM      3  N1  <0> d          28.462  69.133 -21.606  0.00  0.00    -0.171 NA
ATOM      4  N2  <0> d          29.187  70.150 -22.218  0.00  0.00    -0.199 N 
ATOM      5  C3  <0> d          28.377  71.155 -22.611  0.00  0.00     0.277 A 
ATOM      6  O1  <0> d          28.695  72.183 -23.173  0.00  0.00    -0.268 OA
ATOM      7  C4  <0> d          26.984  70.722 -22.199  0.00  0.00     0.273 A 
ENDROOT
BRANCH   7   8
ATOM      8  N3  <0> d          26.113  70.593 -23.369  0.00  0.00    -0.171 NA
ATOM      9  N4  <0> d          26.540  70.061 -24.405  0.00  0.00    -0.152 NA
BRANCH   9  10
ATOM     10  C5  <0> d          25.726  69.941 -25.498  0.00  0.00     0.113 A 
ATOM     11  C10 <0> d          26.264  69.581 -26.741  0.00  0.00     0.098 A 
ATOM     12  C9  <0> d          25.431  69.455 -27.841  0.00  0.00     0.041 A 
ATOM     13  C8  <0> d          24.077  69.698 -27.715  0.00  0.00     0.026 A 
ATOM     14  C7  <0> d          23.540  70.061 -26.490  0.00  0.00     0.036 A 
ATOM     15  C6  <0> d          24.356  70.184 -25.384  0.00  0.00     0.060 A 
ATOM     16 Cl1  <0> d          21.838  70.363 -26.347  0.00  0.00    -0.084 Cl
BRANCH  11  17
ATOM     17  O2  <0> d          27.596  69.348 -26.865  0.00  0.00    -0.354 OA
ATOM     18  C11 <0> d          28.002  68.425 -27.878  0.00  0.00     0.210 C 
ENDBRANCH  11  17
ENDBRANCH   9  10
ENDBRANCH   7   8
BRANCH   4  19
ATOM     19  C12 <0> d          30.574  70.132 -22.404  0.00  0.00     0.061 A 
ATOM     20  C17 <0> d          31.158  69.150 -23.193  0.00  0.00     0.032 A 
ATOM     21  C16 <0> d          32.527  69.134 -23.373  0.00  0.00     0.002 A 
ATOM     22  C15 <0> d          33.317  70.095 -22.768  0.00  0.00     0.000 A 
ATOM     23  C14 <0> d          32.738  71.074 -21.981  0.00  0.00     0.002 A 
ATOM     24  C13 <0> d          31.369  71.099 -21.802  0.00  0.00     0.032 A 
ENDBRANCH   4  19
TORSDOF 4
ENDMDL
MODEL 8
REMARK VINA RESULT:      -6.3      5.034      6.415
REMARK  4 active torsions:
REMARK  status: ('A' for Active; 'I' for Inactive)
REMARK    1  A    between atoms: N2_4  and  C12_19 
REMARK    2  A    between atoms: C4_7  and  N3_8 
REMARK    3  A    between atoms: N4_9  and  C5_10 
REMARK    4  A    between atoms: C10_15  and  O2_16 
ROOT
ATOM      1  C1  <0> d          24.583  69.312 -22.168  0.00  0.00     0.070 C 
ATOM      2  C2  <0> d          25.870  70.084 -22.028  0.00  0.00     0.065 A 
ATOM      3  N1  <0> d          26.638  70.097 -21.011  0.00  0.00    -0.171 NA
ATOM      4  N2  <0> d          27.754  70.912 -21.178  0.00  0.00    -0.199 N 
ATOM      5  C3  <0> d          27.751  71.495 -22.395  0.00  0.00     0.277 A 
ATOM      6  O1  <0> d          28.579  72.257 -22.850  0.00  0.00    -0.268 OA
ATOM      7  C4  <0> d          26.490  70.991 -23.070  0.00  0.00     0.273 A 
ENDROOT
BRANCH   7   8
ATOM      8  N3  <0> d          26.816  70.239 -24.283  0.00  0.00    -0.171 NA
ATOM      9  N4  <0> d          26.740  70.787 -25.393  0.00  0.00    -0.152 NA
BRANCH   9  10
ATOM     10  C5  <0> d          27.045  70.083 -26.525  0.00  0.00     0.113 A 
ATOM     11  C10 <0> d          26.375  70.357 -27.726  0.00  0.00     0.098 A 
ATOM     12  C9  <0> d          26.696  69.644 -28.870  0.00  0.00     0.041 A 
ATOM     13  C8  <0> d          27.661  68.657 -28.823  0.00  0.00     0.026 A 
ATOM     14  C7  <0> d          28.321  68.377 -27.636  0.00  0.00     0.036 A 
ATOM     15  C6  <0> d          28.019  69.083 -26.490  0.00  0.00     0.060 A 
ATOM     16 Cl1  <0> d          29.532  67.136 -27.593  0.00  0.00    -0.084 Cl
BRANCH  11  17
ATOM     17  O2  <0> d          25.422  71.323 -27.770  0.00  0.00    -0.354 OA
ATOM     18  C11 <0> d          24.314  71.102 -28.645  0.00  0.00     0.210 C 
ENDBRANCH  11  17
ENDBRANCH   9  10
ENDBRANCH   7   8
BRANCH   4  19
ATOM     19  C12 <0> d          28.749  71.099 -20.212  0.00  0.00     0.061 A 
ATOM     20  C17 <0> d          29.680  70.097 -19.968  0.00  0.00     0.032 A 
ATOM     21  C16 <0> d          30.660  70.285 -19.013  0.00  0.00     0.002 A 
ATOM     22  C15 <0> d          30.714  71.468 -18.300  0.00  0.00     0.000 A 
ATOM     23  C14 <0> d          29.789  72.468 -18.540  0.00  0.00     0.002 A 
ATOM     24  C13 <0> d          28.810  72.289 -19.498  0.00  0.00     0.032 A 
ENDBRANCH   4  19
TORSDOF 4
ENDMDL
MODEL 9
REMARK VINA RESULT:      -6.3     20.409     23.431
REMARK  4 active torsions:
REMARK  status: ('A' for Active; 'I' for Inactive)
REMARK    1  A    between atoms: N2_4  and  C12_19 
REMARK    2  A    between atoms: C4_7  and  N3_8 
REMARK    3  A    between atoms: N4_9  and  C5_10 
REMARK    4  A    between atoms: C10_15  and  O2_16 
ROOT
ATOM      1  C1  <0> d          31.748  53.134  -5.663  0.00  0.00     0.070 C 
ATOM      2  C2  <0> d          30.291  53.273  -5.306  0.00  0.00     0.065 A 
ATOM      3  N1  <0> d          29.705  52.756  -4.298  0.00  0.00    -0.171 NA
ATOM      4  N2  <0> d          28.349  53.059  -4.238  0.00  0.00    -0.199 N 
ATOM      5  C3  <0> d          27.979  53.839  -5.275  0.00  0.00     0.277 A 
ATOM      6  O1  <0> d          26.872  54.276  -5.512  0.00  0.00    -0.268 OA
ATOM      7  C4  <0> d          29.247  54.050  -6.080  0.00  0.00     0.273 A 
ENDROOT
BRANCH   7   8
ATOM      8  N3  <0> d          29.595  55.471  -6.135  0.00  0.00    -0.171 NA
ATOM      9  N4  <0> d          29.974  55.976  -7.202  0.00  0.00    -0.152 NA
BRANCH   9  10
ATOM     10  C5  <0> d          30.300  57.304  -7.252  0.00  0.00     0.113 A 
ATOM     11  C10 <0> d          31.623  57.696  -7.499  0.00  0.00     0.098 A 
ATOM     12  C9  <0> d          31.942  59.043  -7.555  0.00  0.00     0.041 A 
ATOM     13  C8  <0> d          30.962  59.996  -7.354  0.00  0.00     0.026 A 
ATOM     14  C7  <0> d          29.653  59.614  -7.103  0.00  0.00     0.036 A 
ATOM     15  C6  <0> d          29.318  58.277  -7.051  0.00  0.00     0.060 A 
ATOM     16 Cl1  <0> d          28.433  60.822  -6.853  0.00  0.00    -0.084 Cl
BRANCH  11  17
ATOM     17  O2  <0> d          32.586  56.759  -7.691  0.00  0.00    -0.354 OA
ATOM     18  C11 <0> d          33.415  56.441  -6.571  0.00  0.00     0.210 C 
ENDBRANCH  11  17
ENDBRANCH   9  10
ENDBRANCH   7   8
BRANCH   4  19
ATOM     19  C12 <0> d          27.483  52.615  -3.232  0.00  0.00     0.061 A 
ATOM     20  C17 <0> d          26.654  51.524  -3.458  0.00  0.00     0.032 A 
ATOM     21  C16 <0> d          25.800  51.089  -2.464  0.00  0.00     0.002 A 
ATOM     22  C15 <0> d          25.768  51.740  -1.244  0.00  0.00     0.000 A 
ATOM     23  C14 <0> d          26.591  52.828  -1.016  0.00  0.00     0.002 A 
ATOM     24  C13 <0> d          27.453  53.263  -2.003  0.00  0.00     0.032 A 
ENDBRANCH   4  19
TORSDOF 4
ENDMDL
MODEL 10
REMARK VINA RESULT:      -6.3      8.139     10.773
REMARK  4 active torsions:
REMARK  status: ('A' for Active; 'I' for Inactive)
REMARK    1  A    between atoms: N2_4  and  C12_19 
REMARK    2  A    between atoms: C4_7  and  N3_8 
REMARK    3  A    between atoms: N4_9  and  C5_10 
REMARK    4  A    between atoms: C10_15  and  O2_16 
ROOT
ATOM      1  C1  <0> d          26.620  73.197 -27.240  0.00  0.00     0.070 C 
ATOM      2  C2  <0> d          26.954  71.730 -27.317  0.00  0.00     0.065 A 
ATOM      3  N1  <0> d          27.704  71.081 -26.516  0.00  0.00    -0.171 NA
ATOM      4  N2  <0> d          27.829  69.736 -26.850  0.00  0.00    -0.199 N 
ATOM      5  C3  <0> d          27.114  69.442 -27.956  0.00  0.00     0.277 A 
ATOM      6  O1  <0> d          27.011  68.364 -28.504  0.00  0.00    -0.268 OA
ATOM      7  C4  <0> d          26.466  70.751 -28.365  0.00  0.00     0.273 A 
ENDROOT
BRANCH   7   8
ATOM      8  N3  <0> d          25.006  70.642 -28.328  0.00  0.00    -0.171 NA
ATOM      9  N4  <0> d          24.426  70.437 -27.251  0.00  0.00    -0.152 NA
BRANCH   9  10
ATOM     10  C5  <0> d          23.063  70.334 -27.218  0.00  0.00     0.113 A 
ATOM     11  C10 <0> d          22.333  70.971 -26.204  0.00  0.00     0.098 A 
ATOM     12  C9  <0> d          20.952  70.868 -26.183  0.00  0.00     0.041 A 
ATOM     13  C8  <0> d          20.297  70.128 -27.149  0.00  0.00     0.026 A 
ATOM     14  C7  <0> d          21.014  69.491 -28.150  0.00  0.00     0.036 A 
ATOM     15  C6  <0> d          22.390  69.590 -28.189  0.00  0.00     0.060 A 
ATOM     16 Cl1  <0> d          20.179  68.567 -29.357  0.00  0.00    -0.084 Cl
BRANCH  11  17
ATOM     17  O2  <0> d          22.977  71.692 -25.251  0.00  0.00    -0.354 OA
ATOM     18  C11 <0> d          23.073  71.110 -23.950  0.00  0.00     0.210 C 
ENDBRANCH  11  17
ENDBRANCH   9  10
ENDBRANCH   7   8
BRANCH   4  19
ATOM     19  C12 <0> d          28.593  68.809 -26.132  0.00  0.00     0.061 A 
ATOM     20  C17 <0> d          29.276  67.802 -26.801  0.00  0.00     0.032 A 
ATOM     21  C16 <0> d          30.028  66.889 -26.089  0.00  0.00     0.002 A 
ATOM     22  C15 <0> d          30.101  66.976 -24.711  0.00  0.00     0.000 A 
ATOM     23  C14 <0> d          29.422  67.977 -24.041  0.00  0.00     0.002 A 
ATOM     24  C13 <0> d          28.674  68.898 -24.747  0.00  0.00     0.032 A 
ENDBRANCH   4  19
TORSDOF 4
ENDMDL
