MODEL 1
REMARK VINA RESULT:      -5.9      0.000      0.000
REMARK  0 active torsions:
REMARK  status: ('A' for Active; 'I' for Inactive)
ROOT
ATOM      1  C1  <0> d          27.068  69.252 -20.381  0.00  0.00     0.048 C 
ATOM      2  C2  <0> d          26.543  69.295 -21.793  0.00  0.00    -0.060 A 
ATOM      3  C3  <0> d          25.168  69.312 -22.012  0.00  0.00     0.007 A 
ATOM      4  C4  <0> d          24.664  69.351 -23.278  0.00  0.00     0.014 A 
ATOM      5  C5  <0> d          25.540  69.372 -24.373  0.00  0.00    -0.007 A 
ATOM      6  C6  <0> d          25.061  69.403 -25.699  0.00  0.00     0.025 A 
ATOM      7  C7  <0> d          25.969  69.425 -26.708  0.00  0.00    -0.002 A 
ATOM      8  C8  <0> d          27.345  69.423 -26.441  0.00  0.00     0.171 A 
ATOM      9  N1  <0> d          27.780  69.386 -25.191  0.00  0.00    -0.224 NA
ATOM     10  C9  <0> d          26.939  69.359 -24.154  0.00  0.00     0.070 A 
ATOM     11  C10 <0> d          27.421  69.323 -22.833  0.00  0.00     0.039 A 
ATOM     12  O1  <0> d          28.061  69.475 -27.597  0.00  0.00    -0.334 OA
ATOM     13  C11 <0> d          27.229  69.060 -28.692  0.00  0.00     0.182 C 
ATOM     14  C12 <0> d          25.809  69.449 -28.216  0.00  0.00     0.070 C 
ENDROOT
TORSDOF 0
ENDMDL
MODEL 2
REMARK VINA RESULT:      -5.8      2.531      3.516
REMARK  0 active torsions:
REMARK  status: ('A' for Active; 'I' for Inactive)
ROOT
ATOM      1  C1  <0> d          32.423  67.766 -23.528  0.00  0.00     0.048 C 
ATOM      2  C2  <0> d          31.101  68.372 -23.923  0.00  0.00    -0.060 A 
ATOM      3  C3  <0> d          30.470  69.263 -23.058  0.00  0.00     0.007 A 
ATOM      4  C4  <0> d          29.274  69.827 -23.388  0.00  0.00     0.014 A 
ATOM      5  C5  <0> d          28.671  69.505 -24.612  0.00  0.00    -0.007 A 
ATOM      6  C6  <0> d          27.429  70.058 -24.989  0.00  0.00     0.025 A 
ATOM      7  C7  <0> d          26.907  69.703 -26.191  0.00  0.00    -0.002 A 
ATOM      8  C8  <0> d          27.586  68.814 -27.038  0.00  0.00     0.171 A 
ATOM      9  N1  <0> d          28.746  68.297 -26.668  0.00  0.00    -0.224 NA
ATOM     10  C9  <0> d          29.311  68.604 -25.497  0.00  0.00     0.070 A 
ATOM     11  C10 <0> d          30.546  68.045 -25.122  0.00  0.00     0.039 A 
ATOM     12  O1  <0> d          26.892  68.626 -28.193  0.00  0.00    -0.334 OA
ATOM     13  C11 <0> d          25.521  69.009 -27.995  0.00  0.00     0.182 C 
ATOM     14  C12 <0> d          25.619  70.088 -26.892  0.00  0.00     0.070 C 
ENDROOT
TORSDOF 0
ENDMDL
MODEL 3
REMARK VINA RESULT:      -5.6     24.241     24.843
REMARK  0 active torsions:
REMARK  status: ('A' for Active; 'I' for Inactive)
ROOT
ATOM      1  C1  <0> d          10.393  51.674 -25.189  0.00  0.00     0.048 C 
ATOM      2  C2  <0> d          11.079  50.517 -25.869  0.00  0.00    -0.060 A 
ATOM      3  C3  <0> d          10.904  49.228 -25.370  0.00  0.00     0.007 A 
ATOM      4  C4  <0> d          11.512  48.163 -25.963  0.00  0.00     0.014 A 
ATOM      5  C5  <0> d          12.326  48.366 -27.088  0.00  0.00    -0.007 A 
ATOM      6  C6  <0> d          12.981  47.293 -27.726  0.00  0.00     0.025 A 
ATOM      7  C7  <0> d          13.750  47.566 -28.812  0.00  0.00    -0.002 A 
ATOM      8  C8  <0> d          13.885  48.878 -29.289  0.00  0.00     0.171 A 
ATOM      9  N1  <0> d          13.270  49.876 -28.675  0.00  0.00    -0.224 NA
ATOM     10  C9  <0> d          12.502  49.675 -27.600  0.00  0.00     0.070 A 
ATOM     11  C10 <0> d          11.856  50.748 -26.962  0.00  0.00     0.039 A 
ATOM     12  O1  <0> d          14.676  48.909 -30.395  0.00  0.00    -0.334 OA
ATOM     13  C11 <0> d          15.469  47.712 -30.450  0.00  0.00     0.182 C 
ATOM     14  C12 <0> d          14.585  46.677 -29.713  0.00  0.00     0.070 C 
ENDROOT
TORSDOF 0
ENDMDL
MODEL 4
REMARK VINA RESULT:      -5.5      2.923      4.320
REMARK  0 active torsions:
REMARK  status: ('A' for Active; 'I' for Inactive)
ROOT
ATOM      1  C1  <0> d          23.939  69.524 -22.319  0.00  0.00     0.048 C 
ATOM      2  C2  <0> d          25.295  69.428 -22.969  0.00  0.00    -0.060 A 
ATOM      3  C3  <0> d          25.392  69.450 -24.359  0.00  0.00     0.007 A 
ATOM      4  C4  <0> d          26.604  69.364 -24.975  0.00  0.00     0.014 A 
ATOM      5  C5  <0> d          27.769  69.252 -24.201  0.00  0.00    -0.007 A 
ATOM      6  C6  <0> d          29.042  69.151 -24.798  0.00  0.00     0.025 A 
ATOM      7  C7  <0> d          30.125  69.048 -23.985  0.00  0.00    -0.002 A 
ATOM      8  C8  <0> d          29.982  69.046 -22.590  0.00  0.00     0.171 A 
ATOM      9  N1  <0> d          28.780  69.133 -22.044  0.00  0.00    -0.224 NA
ATOM     10  C9  <0> d          27.675  69.234 -22.788  0.00  0.00     0.070 A 
ATOM     11  C10 <0> d          26.406  69.327 -22.189  0.00  0.00     0.039 A 
ATOM     12  O1  <0> d          31.196  68.961 -21.982  0.00  0.00    -0.334 OA
ATOM     13  C11 <0> d          32.163  68.450 -22.914  0.00  0.00     0.182 C 
ATOM     14  C12 <0> d          31.606  68.915 -24.280  0.00  0.00     0.070 C 
ENDROOT
TORSDOF 0
ENDMDL
MODEL 5
REMARK VINA RESULT:      -5.5      6.541      7.974
REMARK  0 active torsions:
REMARK  status: ('A' for Active; 'I' for Inactive)
ROOT
ATOM      1  C1  <0> d          33.838  73.812 -22.423  0.00  0.00     0.048 C 
ATOM      2  C2  <0> d          32.989  72.668 -21.930  0.00  0.00    -0.060 A 
ATOM      3  C3  <0> d          33.229  71.382 -22.407  0.00  0.00     0.007 A 
ATOM      4  C4  <0> d          32.478  70.328 -21.981  0.00  0.00     0.014 A 
ATOM      5  C5  <0> d          31.449  70.542 -21.051  0.00  0.00    -0.007 A 
ATOM      6  C6  <0> d          30.642  69.481 -20.589  0.00  0.00     0.025 A 
ATOM      7  C7  <0> d          29.667  69.763 -19.687  0.00  0.00    -0.002 A 
ATOM      8  C8  <0> d          29.472  71.071 -19.222  0.00  0.00     0.171 A 
ATOM      9  N1  <0> d          30.232  72.058 -19.669  0.00  0.00    -0.224 NA
ATOM     10  C9  <0> d          31.205  71.847 -20.560  0.00  0.00     0.070 A 
ATOM     11  C10 <0> d          32.004  72.908 -21.022  0.00  0.00     0.039 A 
ATOM     12  O1  <0> d          28.464  71.112 -18.309  0.00  0.00    -0.334 OA
ATOM     13  C11 <0> d          27.644  69.941 -18.450  0.00  0.00     0.182 C 
ATOM     14  C12 <0> d          28.634  68.889 -19.004  0.00  0.00     0.070 C 
ENDROOT
TORSDOF 0
ENDMDL
MODEL 6
REMARK VINA RESULT:      -5.5      1.762      4.953
REMARK  0 active torsions:
REMARK  status: ('A' for Active; 'I' for Inactive)
ROOT
ATOM      1  C1  <0> d          27.151  69.311 -29.024  0.00  0.00     0.048 C 
ATOM      2  C2  <0> d          26.813  69.350 -27.556  0.00  0.00    -0.060 A 
ATOM      3  C3  <0> d          25.488  69.527 -27.163  0.00  0.00     0.007 A 
ATOM      4  C4  <0> d          25.152  69.567 -25.843  0.00  0.00     0.014 A 
ATOM      5  C5  <0> d          26.151  69.429 -24.869  0.00  0.00    -0.007 A 
ATOM      6  C6  <0> d          25.848  69.473 -23.492  0.00  0.00     0.025 A 
ATOM      7  C7  <0> d          26.866  69.330 -22.606  0.00  0.00    -0.002 A 
ATOM      8  C8  <0> d          28.184  69.137 -23.047  0.00  0.00     0.171 A 
ATOM      9  N1  <0> d          28.454  69.104 -24.342  0.00  0.00    -0.224 NA
ATOM     10  C9  <0> d          27.498  69.244 -25.264  0.00  0.00     0.070 A 
ATOM     11  C10 <0> d          27.805  69.205 -26.636  0.00  0.00     0.039 A 
ATOM     12  O1  <0> d          29.029  68.991 -21.991  0.00  0.00    -0.334 OA
ATOM     13  C11 <0> d          28.412  69.524 -20.808  0.00  0.00     0.182 C 
ATOM     14  C12 <0> d          26.902  69.337 -21.090  0.00  0.00     0.070 C 
ENDROOT
TORSDOF 0
ENDMDL
MODEL 7
REMARK VINA RESULT:      -5.4      2.746      5.744
REMARK  0 active torsions:
REMARK  status: ('A' for Active; 'I' for Inactive)
ROOT
ATOM      1  C1  <0> d          25.112  69.637 -25.433  0.00  0.00     0.048 C 
ATOM      2  C2  <0> d          25.495  69.444 -23.989  0.00  0.00    -0.060 A 
ATOM      3  C3  <0> d          24.497  69.264 -23.034  0.00  0.00     0.007 A 
ATOM      4  C4  <0> d          24.813  69.088 -21.720  0.00  0.00     0.014 A 
ATOM      5  C5  <0> d          26.159  69.088 -21.324  0.00  0.00    -0.007 A 
ATOM      6  C6  <0> d          26.530  68.917 -19.975  0.00  0.00     0.025 A 
ATOM      7  C7  <0> d          27.852  68.925 -19.667  0.00  0.00    -0.002 A 
ATOM      8  C8  <0> d          28.824  69.093 -20.664  0.00  0.00     0.171 A 
ATOM      9  N1  <0> d          28.461  69.259 -21.926  0.00  0.00    -0.224 NA
ATOM     10  C9  <0> d          27.177  69.265 -22.293  0.00  0.00     0.070 A 
ATOM     11  C10 <0> d          26.811  69.441 -23.640  0.00  0.00     0.039 A 
ATOM     12  O1  <0> d          30.075  69.040 -20.132  0.00  0.00    -0.334 OA
ATOM     13  C11 <0> d          30.003  69.289 -18.718  0.00  0.00     0.182 C 
ATOM     14  C12 <0> d          28.588  68.784 -18.349  0.00  0.00     0.070 C 
ENDROOT
TORSDOF 0
ENDMDL
MODEL 8
REMARK VINA RESULT:      -5.3      2.520      3.389
REMARK  0 active torsions:
REMARK  status: ('A' for Active; 'I' for Inactive)
ROOT
ATOM      1  C1  <0> d          30.718  69.641 -21.627  0.00  0.00     0.048 C 
ATOM      2  C2  <0> d          30.228  69.278 -23.005  0.00  0.00    -0.060 A 
ATOM      3  C3  <0> d          30.893  68.291 -23.730  0.00  0.00     0.007 A 
ATOM      4  C4  <0> d          30.474  67.942 -24.979  0.00  0.00     0.014 A 
ATOM      5  C5  <0> d          29.360  68.583 -25.541  0.00  0.00    -0.007 A 
ATOM      6  C6  <0> d          28.899  68.259 -26.833  0.00  0.00     0.025 A 
ATOM      7  C7  <0> d          27.813  68.919 -27.311  0.00  0.00    -0.002 A 
ATOM      8  C8  <0> d          27.164  69.894 -26.539  0.00  0.00     0.171 A 
ATOM      9  N1  <0> d          27.613  70.194 -25.331  0.00  0.00    -0.224 NA
ATOM     10  C9  <0> d          28.679  69.583 -24.805  0.00  0.00     0.070 A 
ATOM     11  C10 <0> d          29.140  69.914 -23.518  0.00  0.00     0.039 A 
ATOM     12  O1  <0> d          26.091  70.401 -27.205  0.00  0.00    -0.334 OA
ATOM     13  C11 <0> d          26.230  70.131 -28.609  0.00  0.00     0.182 C 
ATOM     14  C12 <0> d          27.072  68.833 -28.631  0.00  0.00     0.070 C 
ENDROOT
TORSDOF 0
ENDMDL
MODEL 9
REMARK VINA RESULT:      -5.3     15.039     16.793
REMARK  0 active torsions:
REMARK  status: ('A' for Active; 'I' for Inactive)
ROOT
ATOM      1  C1  <0> d          24.583  55.341 -35.804  0.00  0.00     0.048 C 
ATOM      2  C2  <0> d          24.594  54.956 -34.347  0.00  0.00    -0.060 A 
ATOM      3  C3  <0> d          25.257  53.797 -33.950  0.00  0.00     0.007 A 
ATOM      4  C4  <0> d          25.284  53.423 -32.640  0.00  0.00     0.014 A 
ATOM      5  C5  <0> d          24.637  54.214 -31.680  0.00  0.00    -0.007 A 
ATOM      6  C6  <0> d          24.633  53.859 -30.315  0.00  0.00     0.025 A 
ATOM      7  C7  <0> d          23.987  54.675 -29.442  0.00  0.00    -0.002 A 
ATOM      8  C8  <0> d          23.347  55.842 -29.884  0.00  0.00     0.171 A 
ATOM      9  N1  <0> d          23.353  56.158 -31.169  0.00  0.00    -0.224 NA
ATOM     10  C9  <0> d          23.966  55.396 -32.079  0.00  0.00     0.070 A 
ATOM     11  C10 <0> d          23.963  55.750 -33.439  0.00  0.00     0.039 A 
ATOM     12  O1  <0> d          22.794  56.514 -28.838  0.00  0.00    -0.334 OA
ATOM     13  C11 <0> d          22.641  55.620 -27.724  0.00  0.00     0.182 C 
ATOM     14  C12 <0> d          23.779  54.595 -27.942  0.00  0.00     0.070 C 
ENDROOT
TORSDOF 0
ENDMDL
MODEL 10
REMARK VINA RESULT:      -5.3     24.945     25.834
REMARK  0 active torsions:
REMARK  status: ('A' for Active; 'I' for Inactive)
ROOT
ATOM      1  C1  <0> d          12.440  47.837 -26.940  0.00  0.00     0.048 C 
ATOM      2  C2  <0> d          11.551  49.017 -26.640  0.00  0.00    -0.060 A 
ATOM      3  C3  <0> d          12.100  50.157 -26.057  0.00  0.00     0.007 A 
ATOM      4  C4  <0> d          11.321  51.238 -25.773  0.00  0.00     0.014 A 
ATOM      5  C5  <0> d           9.951  51.203 -26.071  0.00  0.00    -0.007 A 
ATOM      6  C6  <0> d           9.108  52.297 -25.786  0.00  0.00     0.025 A 
ATOM      7  C7  <0> d           7.792  52.192 -26.104  0.00  0.00    -0.002 A 
ATOM      8  C8  <0> d           7.286  51.031 -26.706  0.00  0.00     0.171 A 
ATOM      9  N1  <0> d           8.088  50.009 -26.961  0.00  0.00    -0.224 NA
ATOM     10  C9  <0> d           9.391  50.048 -26.668  0.00  0.00     0.070 A 
ATOM     11  C10 <0> d          10.227  48.953 -26.948  0.00  0.00     0.039 A 
ATOM     12  O1  <0> d           5.955  51.160 -26.959  0.00  0.00    -0.334 OA
ATOM     13  C11 <0> d           5.414  52.211 -26.142  0.00  0.00     0.182 C 
ATOM     14  C12 <0> d           6.627  53.148 -25.933  0.00  0.00     0.070 C 
ENDROOT
TORSDOF 0
ENDMDL
