MODEL 1
REMARK VINA RESULT:      -6.0      0.000      0.000
REMARK  7 active torsions:
REMARK  status: ('A' for Active; 'I' for Inactive)
REMARK    1  A    between atoms: C2_2  and  C3_3 
REMARK    2  A    between atoms: C3_3  and  C4_4 
REMARK    3  A    between atoms: C4_4  and  C5_5 
REMARK    4  A    between atoms: C5_5  and  C6_6 
REMARK    5  A    between atoms: C6_6  and  C7_7 
REMARK    6  A    between atoms: C7_7  and  N1_8 
REMARK    7  A    between atoms: C11_12  and  C12_13 
ROOT
ATOM      1  C12 <0> d          26.417  69.692 -27.138  0.00  0.00     0.035 C 
ATOM      2  C13 <0> d          26.128  70.281 -28.383  0.00  0.00     0.124 C 
ATOM      3  C14 <0> d          24.800  70.737 -28.669  0.00  0.00     0.110 C 
ATOM      4  N2  <0> d          23.747  71.098 -28.895  0.00  0.00    -0.191 NA
ATOM      5  C15 <0> d          27.160  70.426 -29.366  0.00  0.00     0.110 C 
ATOM      6  N3  <0> d          27.980  70.539 -30.144  0.00  0.00    -0.191 NA
ENDROOT
BRANCH   1   7
ATOM      7  C11 <0> d          25.434  69.556 -26.203  0.00  0.00     0.013 C 
ATOM      8  C10 <0> d          25.770  69.442 -24.838  0.00  0.00    -0.034 A 
ATOM      9  C9  <0> d          24.761  69.305 -23.855  0.00  0.00     0.028 A 
ATOM     10  C16 <0> d          27.123  69.458 -24.423  0.00  0.00     0.028 A 
ATOM     11  C8  <0> d          25.115  69.199 -22.554  0.00  0.00     0.091 A 
ATOM     12  N1  <0> d          26.422  69.222 -22.188  0.00  0.00    -0.366 N 
ATOM     13  C17 <0> d          27.412  69.352 -23.107  0.00  0.00     0.091 A 
BRANCH  12  14
ATOM     14  C7  <0> d          26.771  69.104 -20.771  0.00  0.00     0.128 C 
BRANCH  14  15
ATOM     15  C6  <0> d          28.272  69.341 -20.593  0.00  0.00     0.020 C 
BRANCH  15  16
ATOM     16  C5  <0> d          28.624  69.286 -19.105  0.00  0.00     0.002 C 
BRANCH  16  17
ATOM     17  C4  <0> d          29.643  70.381 -18.782  0.00  0.00     0.000 C 
BRANCH  17  18
ATOM     18  C3  <0> d          30.969  69.739 -18.369  0.00  0.00    -0.000 C 
BRANCH  18  19
ATOM     19  C2  <0> d          30.972  69.500 -16.857  0.00  0.00    -0.005 C 
ATOM     20  C1  <0> d          31.242  68.021 -16.576  0.00  0.00     0.005 C 
ENDBRANCH  18  19
ENDBRANCH  17  18
ENDBRANCH  16  17
ENDBRANCH  15  16
ENDBRANCH  14  15
ENDBRANCH  12  14
ENDBRANCH   1   7
TORSDOF 7
ENDMDL
MODEL 2
REMARK VINA RESULT:      -5.8     21.597     23.654
REMARK  7 active torsions:
REMARK  status: ('A' for Active; 'I' for Inactive)
REMARK    1  A    between atoms: C2_2  and  C3_3 
REMARK    2  A    between atoms: C3_3  and  C4_4 
REMARK    3  A    between atoms: C4_4  and  C5_5 
REMARK    4  A    between atoms: C5_5  and  C6_6 
REMARK    5  A    between atoms: C6_6  and  C7_7 
REMARK    6  A    between atoms: C7_7  and  N1_8 
REMARK    7  A    between atoms: C11_12  and  C12_13 
ROOT
ATOM      1  C12 <0> d          12.533  56.394 -29.056  0.00  0.00     0.035 C 
ATOM      2  C13 <0> d          12.951  56.961 -30.275  0.00  0.00     0.124 C 
ATOM      3  C14 <0> d          11.997  57.211 -31.313  0.00  0.00     0.110 C 
ATOM      4  N2  <0> d          11.239  57.408 -32.137  0.00  0.00    -0.191 NA
ATOM      5  C15 <0> d          14.330  57.287 -30.478  0.00  0.00     0.110 C 
ATOM      6  N3  <0> d          15.425  57.546 -30.639  0.00  0.00    -0.191 NA
ENDROOT
BRANCH   1   7
ATOM      7  C11 <0> d          11.219  56.084 -28.863  0.00  0.00     0.013 C 
ATOM      8  C10 <0> d          10.866  54.882 -28.215  0.00  0.00    -0.034 A 
ATOM      9  C9  <0> d           9.508  54.548 -28.003  0.00  0.00     0.028 A 
ATOM     10  C16 <0> d          11.863  53.983 -27.768  0.00  0.00     0.028 A 
ATOM     11  C8  <0> d           9.201  53.389 -27.377  0.00  0.00     0.091 A 
ATOM     12  N1  <0> d          10.181  52.549 -26.956  0.00  0.00    -0.366 N 
ATOM     13  C17 <0> d          11.493  52.841 -27.145  0.00  0.00     0.091 A 
BRANCH  12  14
ATOM     14  C7  <0> d           9.815  51.302 -26.283  0.00  0.00     0.128 C 
BRANCH  14  15
ATOM     15  C6  <0> d          10.911  50.918 -25.287  0.00  0.00     0.020 C 
BRANCH  15  16
ATOM     16  C5  <0> d          11.103  49.400 -25.300  0.00  0.00     0.002 C 
BRANCH  16  17
ATOM     17  C4  <0> d          10.538  48.826 -26.601  0.00  0.00     0.000 C 
BRANCH  17  18
ATOM     18  C3  <0> d          11.279  47.535 -26.953  0.00  0.00    -0.000 C 
BRANCH  18  19
ATOM     19  C2  <0> d          12.788  47.777 -26.885  0.00  0.00    -0.005 C 
ATOM     20  C1  <0> d          13.444  47.282 -28.175  0.00  0.00     0.005 C 
ENDBRANCH  18  19
ENDBRANCH  17  18
ENDBRANCH  16  17
ENDBRANCH  15  16
ENDBRANCH  14  15
ENDBRANCH  12  14
ENDBRANCH   1   7
TORSDOF 7
ENDMDL
MODEL 3
REMARK VINA RESULT:      -5.6      1.329      1.545
REMARK  7 active torsions:
REMARK  status: ('A' for Active; 'I' for Inactive)
REMARK    1  A    between atoms: C2_2  and  C3_3 
REMARK    2  A    between atoms: C3_3  and  C4_4 
REMARK    3  A    between atoms: C4_4  and  C5_5 
REMARK    4  A    between atoms: C5_5  and  C6_6 
REMARK    5  A    between atoms: C6_6  and  C7_7 
REMARK    6  A    between atoms: C7_7  and  N1_8 
REMARK    7  A    between atoms: C11_12  and  C12_13 
ROOT
ATOM      1  C12 <0> d          26.572  69.842 -25.930  0.00  0.00     0.035 C 
ATOM      2  C13 <0> d          26.168  69.347 -27.184  0.00  0.00     0.124 C 
ATOM      3  C14 <0> d          24.863  68.780 -27.345  0.00  0.00     0.110 C 
ATOM      4  N2  <0> d          23.827  68.331 -27.471  0.00  0.00    -0.191 NA
ATOM      5  C15 <0> d          27.063  69.409 -28.301  0.00  0.00     0.110 C 
ATOM      6  N3  <0> d          27.774  69.458 -29.186  0.00  0.00    -0.191 NA
ENDROOT
BRANCH   1   7
ATOM      7  C11 <0> d          25.719  69.783 -24.867  0.00  0.00     0.013 C 
ATOM      8  C10 <0> d          26.216  69.491 -23.579  0.00  0.00    -0.034 A 
ATOM      9  C9  <0> d          25.345  69.432 -22.466  0.00  0.00     0.028 A 
ATOM     10  C16 <0> d          27.594  69.248 -23.376  0.00  0.00     0.028 A 
ATOM     11  C8  <0> d          25.851  69.151 -21.244  0.00  0.00     0.091 A 
ATOM     12  N1  <0> d          27.180  68.926 -21.080  0.00  0.00    -0.366 N 
ATOM     13  C17 <0> d          28.041  68.976 -22.128  0.00  0.00     0.091 A 
BRANCH  12  14
ATOM     14  C7  <0> d          27.696  68.624 -19.744  0.00  0.00     0.128 C 
BRANCH  14  15
ATOM     15  C6  <0> d          27.253  69.715 -18.767  0.00  0.00     0.020 C 
BRANCH  15  16
ATOM     16  C5  <0> d          28.476  70.501 -18.291  0.00  0.00     0.002 C 
BRANCH  16  17
ATOM     17  C4  <0> d          29.731  69.951 -18.972  0.00  0.00     0.000 C 
BRANCH  17  18
ATOM     18  C3  <0> d          30.862  69.841 -17.947  0.00  0.00    -0.000 C 
BRANCH  18  19
ATOM     19  C2  <0> d          30.709  68.541 -17.155  0.00  0.00    -0.005 C 
ATOM     20  C1  <0> d          31.420  68.678 -15.807  0.00  0.00     0.005 C 
ENDBRANCH  18  19
ENDBRANCH  17  18
ENDBRANCH  16  17
ENDBRANCH  15  16
ENDBRANCH  14  15
ENDBRANCH  12  14
ENDBRANCH   1   7
TORSDOF 7
ENDMDL
MODEL 4
REMARK VINA RESULT:      -5.3     17.571     19.500
REMARK  7 active torsions:
REMARK  status: ('A' for Active; 'I' for Inactive)
REMARK    1  A    between atoms: C2_2  and  C3_3 
REMARK    2  A    between atoms: C3_3  and  C4_4 
REMARK    3  A    between atoms: C4_4  and  C5_5 
REMARK    4  A    between atoms: C5_5  and  C6_6 
REMARK    5  A    between atoms: C6_6  and  C7_7 
REMARK    6  A    between atoms: C7_7  and  N1_8 
REMARK    7  A    between atoms: C11_12  and  C12_13 
ROOT
ATOM      1  C12 <0> d          31.464  85.782 -19.511  0.00  0.00     0.035 C 
ATOM      2  C13 <0> d          31.355  86.654 -20.611  0.00  0.00     0.124 C 
ATOM      3  C14 <0> d          32.310  87.706 -20.788  0.00  0.00     0.110 C 
ATOM      4  N2  <0> d          33.067  88.542 -20.928  0.00  0.00    -0.191 NA
ATOM      5  C15 <0> d          30.290  86.488 -21.554  0.00  0.00     0.110 C 
ATOM      6  N3  <0> d          29.444  86.356 -22.301  0.00  0.00    -0.191 NA
ENDROOT
BRANCH   1   7
ATOM      7  C11 <0> d          32.479  85.940 -18.614  0.00  0.00     0.013 C 
ATOM      8  C10 <0> d          32.205  85.930 -17.230  0.00  0.00    -0.034 A 
ATOM      9  C9  <0> d          33.249  86.087 -16.287  0.00  0.00     0.028 A 
ATOM     10  C16 <0> d          30.882  85.767 -16.757  0.00  0.00     0.028 A 
ATOM     11  C8  <0> d          32.954  86.072 -14.967  0.00  0.00     0.091 A 
ATOM     12  N1  <0> d          31.675  85.910 -14.545  0.00  0.00    -0.366 N 
ATOM     13  C17 <0> d          30.653  85.756 -15.424  0.00  0.00     0.091 A 
BRANCH  12  14
ATOM     14  C7  <0> d          31.391  85.899 -13.108  0.00  0.00     0.128 C 
BRANCH  14  15
ATOM     15  C6  <0> d          30.398  87.014 -12.775  0.00  0.00     0.020 C 
BRANCH  15  16
ATOM     16  C5  <0> d          31.136  88.353 -12.717  0.00  0.00     0.002 C 
BRANCH  16  17
ATOM     17  C4  <0> d          30.702  89.226 -13.896  0.00  0.00     0.000 C 
BRANCH  17  18
ATOM     18  C3  <0> d          31.866  89.373 -14.878  0.00  0.00    -0.000 C 
BRANCH  18  19
ATOM     19  C2  <0> d          31.319  89.560 -16.295  0.00  0.00    -0.005 C 
ATOM     20  C1  <0> d          32.481  89.585 -17.290  0.00  0.00     0.005 C 
ENDBRANCH  18  19
ENDBRANCH  17  18
ENDBRANCH  16  17
ENDBRANCH  15  16
ENDBRANCH  14  15
ENDBRANCH  12  14
ENDBRANCH   1   7
TORSDOF 7
ENDMDL
MODEL 5
REMARK VINA RESULT:      -5.3     16.983     19.452
REMARK  7 active torsions:
REMARK  status: ('A' for Active; 'I' for Inactive)
REMARK    1  A    between atoms: C2_2  and  C3_3 
REMARK    2  A    between atoms: C3_3  and  C4_4 
REMARK    3  A    between atoms: C4_4  and  C5_5 
REMARK    4  A    between atoms: C5_5  and  C6_6 
REMARK    5  A    between atoms: C6_6  and  C7_7 
REMARK    6  A    between atoms: C7_7  and  N1_8 
REMARK    7  A    between atoms: C11_12  and  C12_13 
ROOT
ATOM      1  C12 <0> d          23.508  53.936 -28.734  0.00  0.00     0.035 C 
ATOM      2  C13 <0> d          22.721  55.093 -28.587  0.00  0.00     0.124 C 
ATOM      3  C14 <0> d          21.493  55.222 -29.312  0.00  0.00     0.110 C 
ATOM      4  N2  <0> d          20.519  55.323 -29.888  0.00  0.00    -0.191 NA
ATOM      5  C15 <0> d          23.148  56.144 -27.713  0.00  0.00     0.110 C 
ATOM      6  N3  <0> d          23.488  56.977 -27.019  0.00  0.00    -0.191 NA
ENDROOT
BRANCH   1   7
ATOM      7  C11 <0> d          23.100  52.935 -29.567  0.00  0.00     0.013 C 
ATOM      8  C10 <0> d          23.898  52.567 -30.670  0.00  0.00    -0.034 A 
ATOM      9  C9  <0> d          23.491  51.528 -31.540  0.00  0.00     0.028 A 
ATOM     10  C16 <0> d          25.118  53.233 -30.933  0.00  0.00     0.028 A 
ATOM     11  C8  <0> d          24.278  51.198 -32.589  0.00  0.00     0.091 A 
ATOM     12  N1  <0> d          25.446  51.852 -32.812  0.00  0.00    -0.366 N 
ATOM     13  C17 <0> d          25.863  52.853 -31.996  0.00  0.00     0.091 A 
BRANCH  12  14
ATOM     14  C7  <0> d          26.274  51.470 -33.957  0.00  0.00     0.128 C 
BRANCH  14  15
ATOM     15  C6  <0> d          26.631  52.717 -34.769  0.00  0.00     0.020 C 
BRANCH  15  16
ATOM     16  C5  <0> d          25.362  53.295 -35.400  0.00  0.00     0.002 C 
BRANCH  16  17
ATOM     17  C4  <0> d          25.503  54.813 -35.527  0.00  0.00     0.000 C 
BRANCH  17  18
ATOM     18  C3  <0> d          24.647  55.497 -34.459  0.00  0.00    -0.000 C 
BRANCH  18  19
ATOM     19  C2  <0> d          23.425  54.629 -34.150  0.00  0.00    -0.005 C 
ATOM     20  C1  <0> d          22.697  55.189 -32.927  0.00  0.00     0.005 C 
ENDBRANCH  18  19
ENDBRANCH  17  18
ENDBRANCH  16  17
ENDBRANCH  15  16
ENDBRANCH  14  15
ENDBRANCH  12  14
ENDBRANCH   1   7
TORSDOF 7
ENDMDL
MODEL 6
REMARK VINA RESULT:      -5.3      2.956      5.509
REMARK  7 active torsions:
REMARK  status: ('A' for Active; 'I' for Inactive)
REMARK    1  A    between atoms: C2_2  and  C3_3 
REMARK    2  A    between atoms: C3_3  and  C4_4 
REMARK    3  A    between atoms: C4_4  and  C5_5 
REMARK    4  A    between atoms: C5_5  and  C6_6 
REMARK    5  A    between atoms: C6_6  and  C7_7 
REMARK    6  A    between atoms: C7_7  and  N1_8 
REMARK    7  A    between atoms: C11_12  and  C12_13 
ROOT
ATOM      1  C12 <0> d          25.534  69.902 -25.373  0.00  0.00     0.035 C 
ATOM      2  C13 <0> d          25.891  70.442 -26.623  0.00  0.00     0.124 C 
ATOM      3  C14 <0> d          27.252  70.802 -26.885  0.00  0.00     0.110 C 
ATOM      4  N2  <0> d          28.332  71.087 -27.093  0.00  0.00    -0.191 NA
ATOM      5  C15 <0> d          24.894  70.633 -27.633  0.00  0.00     0.110 C 
ATOM      6  N3  <0> d          24.101  70.784 -28.433  0.00  0.00    -0.191 NA
ENDROOT
BRANCH   1   7
ATOM      7  C11 <0> d          26.485  69.720 -24.412  0.00  0.00     0.013 C 
ATOM      8  C10 <0> d          26.101  69.394 -23.094  0.00  0.00    -0.034 A 
ATOM      9  C9  <0> d          27.076  69.196 -22.087  0.00  0.00     0.028 A 
ATOM     10  C16 <0> d          24.735  69.261 -22.751  0.00  0.00     0.028 A 
ATOM     11  C8  <0> d          26.677  68.884 -20.833  0.00  0.00     0.091 A 
ATOM     12  N1  <0> d          25.359  68.760 -20.537  0.00  0.00    -0.366 N 
ATOM     13  C17 <0> d          24.401  68.943 -21.480  0.00  0.00     0.091 A 
BRANCH  12  14
ATOM     14  C7  <0> d          24.961  68.421 -19.169  0.00  0.00     0.128 C 
BRANCH  14  15
ATOM     15  C6  <0> d          24.189  69.592 -18.557  0.00  0.00     0.020 C 
BRANCH  15  16
ATOM     16  C5  <0> d          23.057  69.053 -17.680  0.00  0.00     0.002 C 
BRANCH  16  17
ATOM     17  C4  <0> d          22.168  68.124 -18.509  0.00  0.00     0.000 C 
BRANCH  17  18
ATOM     18  C3  <0> d          20.968  68.908 -19.043  0.00  0.00    -0.000 C 
BRANCH  18  19
ATOM     19  C2  <0> d          20.960  68.852 -20.572  0.00  0.00    -0.005 C 
ATOM     20  C1  <0> d          19.631  69.399 -21.096  0.00  0.00     0.005 C 
ENDBRANCH  18  19
ENDBRANCH  17  18
ENDBRANCH  16  17
ENDBRANCH  15  16
ENDBRANCH  14  15
ENDBRANCH  12  14
ENDBRANCH   1   7
TORSDOF 7
ENDMDL
MODEL 7
REMARK VINA RESULT:      -5.3     17.849     19.669
REMARK  7 active torsions:
REMARK  status: ('A' for Active; 'I' for Inactive)
REMARK    1  A    between atoms: C2_2  and  C3_3 
REMARK    2  A    between atoms: C3_3  and  C4_4 
REMARK    3  A    between atoms: C4_4  and  C5_5 
REMARK    4  A    between atoms: C5_5  and  C6_6 
REMARK    5  A    between atoms: C6_6  and  C7_7 
REMARK    6  A    between atoms: C7_7  and  N1_8 
REMARK    7  A    between atoms: C11_12  and  C12_13 
ROOT
ATOM      1  C12 <0> d          31.466  85.776 -19.512  0.00  0.00     0.035 C 
ATOM      2  C13 <0> d          31.398  86.646 -20.616  0.00  0.00     0.124 C 
ATOM      3  C14 <0> d          32.356  87.702 -20.757  0.00  0.00     0.110 C 
ATOM      4  N2  <0> d          33.116  88.539 -20.868  0.00  0.00    -0.191 NA
ATOM      5  C15 <0> d          30.371  86.477 -21.599  0.00  0.00     0.110 C 
ATOM      6  N3  <0> d          29.555  86.342 -22.379  0.00  0.00    -0.191 NA
ENDROOT
BRANCH   1   7
ATOM      7  C11 <0> d          32.445  85.938 -18.576  0.00  0.00     0.013 C 
ATOM      8  C10 <0> d          32.106  86.034 -17.210  0.00  0.00    -0.034 A 
ATOM      9  C9  <0> d          33.111  86.196 -16.227  0.00  0.00     0.028 A 
ATOM     10  C16 <0> d          30.755  85.976 -16.795  0.00  0.00     0.028 A 
ATOM     11  C8  <0> d          32.754  86.285 -14.925  0.00  0.00     0.091 A 
ATOM     12  N1  <0> d          31.449  86.222 -14.559  0.00  0.00    -0.366 N 
ATOM     13  C17 <0> d          30.463  86.066 -15.478  0.00  0.00     0.091 A 
BRANCH  12  14
ATOM     14  C7  <0> d          31.097  86.322 -13.141  0.00  0.00     0.128 C 
BRANCH  14  15
ATOM     15  C6  <0> d          32.221  87.034 -12.385  0.00  0.00     0.020 C 
BRANCH  15  16
ATOM     16  C5  <0> d          31.853  88.506 -12.193  0.00  0.00     0.002 C 
BRANCH  16  17
ATOM     17  C4  <0> d          32.900  89.182 -11.305  0.00  0.00     0.000 C 
BRANCH  17  18
ATOM     18  C3  <0> d          32.688  88.755  -9.851  0.00  0.00    -0.000 C 
BRANCH  18  19
ATOM     19  C2  <0> d          33.982  88.151  -9.302  0.00  0.00    -0.005 C 
ATOM     20  C1  <0> d          33.646  86.969  -8.390  0.00  0.00     0.005 C 
ENDBRANCH  18  19
ENDBRANCH  17  18
ENDBRANCH  16  17
ENDBRANCH  15  16
ENDBRANCH  14  15
ENDBRANCH  12  14
ENDBRANCH   1   7
TORSDOF 7
ENDMDL
MODEL 8
REMARK VINA RESULT:      -5.1      4.876     11.103
REMARK  7 active torsions:
REMARK  status: ('A' for Active; 'I' for Inactive)
REMARK    1  A    between atoms: C2_2  and  C3_3 
REMARK    2  A    between atoms: C3_3  and  C4_4 
REMARK    3  A    between atoms: C4_4  and  C5_5 
REMARK    4  A    between atoms: C5_5  and  C6_6 
REMARK    5  A    between atoms: C6_6  and  C7_7 
REMARK    6  A    between atoms: C7_7  and  N1_8 
REMARK    7  A    between atoms: C11_12  and  C12_13 
ROOT
ATOM      1  C12 <0> d          25.549  69.068 -27.376  0.00  0.00     0.035 C 
ATOM      2  C13 <0> d          26.218  69.464 -26.204  0.00  0.00     0.124 C 
ATOM      3  C14 <0> d          25.540  69.424 -24.943  0.00  0.00     0.110 C 
ATOM      4  N2  <0> d          25.001  69.393 -23.943  0.00  0.00    -0.191 NA
ATOM      5  C15 <0> d          27.578  69.908 -26.270  0.00  0.00     0.110 C 
ATOM      6  N3  <0> d          28.657  70.260 -26.323  0.00  0.00    -0.191 NA
ENDROOT
BRANCH   1   7
ATOM      7  C11 <0> d          24.253  68.645 -27.312  0.00  0.00     0.013 C 
ATOM      8  C10 <0> d          23.244  69.359 -27.992  0.00  0.00    -0.034 A 
ATOM      9  C9  <0> d          21.897  68.930 -27.939  0.00  0.00     0.028 A 
ATOM     10  C16 <0> d          23.557  70.521 -28.735  0.00  0.00     0.028 A 
ATOM     11  C8  <0> d          20.952  69.635 -28.602  0.00  0.00     0.091 A 
ATOM     12  N1  <0> d          21.285  70.744 -29.310  0.00  0.00    -0.366 N 
ATOM     13  C17 <0> d          22.568  71.180 -29.379  0.00  0.00     0.091 A 
BRANCH  12  14
ATOM     14  C7  <0> d          20.237  71.485 -30.015  0.00  0.00     0.128 C 
BRANCH  14  15
ATOM     15  C6  <0> d          19.489  70.539 -30.958  0.00  0.00     0.020 C 
BRANCH  15  16
ATOM     16  C5  <0> d          20.296  70.360 -32.246  0.00  0.00     0.002 C 
BRANCH  16  17
ATOM     17  C4  <0> d          20.801  68.919 -32.334  0.00  0.00     0.000 C 
BRANCH  17  18
ATOM     18  C3  <0> d          20.608  68.396 -33.759  0.00  0.00    -0.000 C 
BRANCH  18  19
ATOM     19  C2  <0> d          19.663  69.328 -34.521  0.00  0.00    -0.005 C 
ATOM     20  C1  <0> d          18.348  68.599 -34.806  0.00  0.00     0.005 C 
ENDBRANCH  18  19
ENDBRANCH  17  18
ENDBRANCH  16  17
ENDBRANCH  15  16
ENDBRANCH  14  15
ENDBRANCH  12  14
ENDBRANCH   1   7
TORSDOF 7
ENDMDL
MODEL 9
REMARK VINA RESULT:      -5.1     23.523     25.071
REMARK  7 active torsions:
REMARK  status: ('A' for Active; 'I' for Inactive)
REMARK    1  A    between atoms: C2_2  and  C3_3 
REMARK    2  A    between atoms: C3_3  and  C4_4 
REMARK    3  A    between atoms: C4_4  and  C5_5 
REMARK    4  A    between atoms: C5_5  and  C6_6 
REMARK    5  A    between atoms: C6_6  and  C7_7 
REMARK    6  A    between atoms: C7_7  and  N1_8 
REMARK    7  A    between atoms: C11_12  and  C12_13 
ROOT
ATOM      1  C12 <0> d          44.330  81.805 -38.667  0.00  0.00     0.035 C 
ATOM      2  C13 <0> d          43.237  81.705 -39.548  0.00  0.00     0.124 C 
ATOM      3  C14 <0> d          43.176  80.632 -40.495  0.00  0.00     0.110 C 
ATOM      4  N2  <0> d          43.128  79.780 -41.245  0.00  0.00    -0.191 NA
ATOM      5  C15 <0> d          42.186  82.676 -39.499  0.00  0.00     0.110 C 
ATOM      6  N3  <0> d          41.352  83.447 -39.459  0.00  0.00    -0.191 NA
ENDROOT
BRANCH   1   7
ATOM      7  C11 <0> d          45.331  80.879 -38.715  0.00  0.00     0.013 C 
ATOM      8  C10 <0> d          45.545  80.015 -37.620  0.00  0.00    -0.034 A 
ATOM      9  C9  <0> d          46.575  79.046 -37.656  0.00  0.00     0.028 A 
ATOM     10  C16 <0> d          44.736  80.102 -36.463  0.00  0.00     0.028 A 
ATOM     11  C8  <0> d          46.755  78.232 -36.591  0.00  0.00     0.091 A 
ATOM     12  N1  <0> d          45.959  78.338 -35.497  0.00  0.00    -0.366 N 
ATOM     13  C17 <0> d          44.962  79.256 -35.432  0.00  0.00     0.091 A 
BRANCH  12  14
ATOM     14  C7  <0> d          46.180  77.440 -34.361  0.00  0.00     0.128 C 
BRANCH  14  15
ATOM     15  C6  <0> d          46.359  78.266 -33.085  0.00  0.00     0.020 C 
BRANCH  15  16
ATOM     16  C5  <0> d          47.845  78.340 -32.729  0.00  0.00     0.002 C 
BRANCH  16  17
ATOM     17  C4  <0> d          48.511  79.447 -33.548  0.00  0.00     0.000 C 
BRANCH  17  18
ATOM     18  C3  <0> d          47.662  80.718 -33.475  0.00  0.00    -0.000 C 
BRANCH  18  19
ATOM     19  C2  <0> d          47.798  81.500 -34.783  0.00  0.00    -0.005 C 
ATOM     20  C1  <0> d          48.802  82.639 -34.594  0.00  0.00     0.005 C 
ENDBRANCH  18  19
ENDBRANCH  17  18
ENDBRANCH  16  17
ENDBRANCH  15  16
ENDBRANCH  14  15
ENDBRANCH  12  14
ENDBRANCH   1   7
TORSDOF 7
ENDMDL
MODEL 10
REMARK VINA RESULT:      -5.1     20.660     22.759
REMARK  7 active torsions:
REMARK  status: ('A' for Active; 'I' for Inactive)
REMARK    1  A    between atoms: C2_2  and  C3_3 
REMARK    2  A    between atoms: C3_3  and  C4_4 
REMARK    3  A    between atoms: C4_4  and  C5_5 
REMARK    4  A    between atoms: C5_5  and  C6_6 
REMARK    5  A    between atoms: C6_6  and  C7_7 
REMARK    6  A    between atoms: C7_7  and  N1_8 
REMARK    7  A    between atoms: C11_12  and  C12_13 
ROOT
ATOM      1  C12 <0> d          13.352  56.497 -31.631  0.00  0.00     0.035 C 
ATOM      2  C13 <0> d          14.689  56.808 -31.943  0.00  0.00     0.124 C 
ATOM      3  C14 <0> d          15.536  57.402 -30.952  0.00  0.00     0.110 C 
ATOM      4  N2  <0> d          16.207  57.874 -30.166  0.00  0.00    -0.191 NA
ATOM      5  C15 <0> d          15.204  56.531 -33.250  0.00  0.00     0.110 C 
ATOM      6  N3  <0> d          15.611  56.311 -34.288  0.00  0.00    -0.191 NA
ENDROOT
BRANCH   1   7
ATOM      7  C11 <0> d          12.863  56.760 -30.386  0.00  0.00     0.013 C 
ATOM      8  C10 <0> d          12.248  55.734 -29.638  0.00  0.00    -0.034 A 
ATOM      9  C9  <0> d          11.741  55.991 -28.342  0.00  0.00     0.028 A 
ATOM     10  C16 <0> d          12.123  54.429 -30.169  0.00  0.00     0.028 A 
ATOM     11  C8  <0> d          11.157  54.986 -27.650  0.00  0.00     0.091 A 
ATOM     12  N1  <0> d          11.056  53.743 -28.186  0.00  0.00    -0.366 N 
ATOM     13  C17 <0> d          11.533  53.466 -29.426  0.00  0.00     0.091 A 
BRANCH  12  14
ATOM     14  C7  <0> d          10.418  52.678 -27.409  0.00  0.00     0.128 C 
BRANCH  14  15
ATOM     15  C6  <0> d          11.465  51.990 -26.531  0.00  0.00     0.020 C 
BRANCH  15  16
ATOM     16  C5  <0> d          10.780  51.368 -25.312  0.00  0.00     0.002 C 
BRANCH  16  17
ATOM     17  C4  <0> d          11.144  49.885 -25.224  0.00  0.00     0.000 C 
BRANCH  17  18
ATOM     18  C3  <0> d          10.572  49.146 -26.436  0.00  0.00    -0.000 C 
BRANCH  18  19
ATOM     19  C2  <0> d          11.289  47.804 -26.601  0.00  0.00    -0.005 C 
ATOM     20  C1  <0> d          12.802  48.033 -26.625  0.00  0.00     0.005 C 
ENDBRANCH  18  19
ENDBRANCH  17  18
ENDBRANCH  16  17
ENDBRANCH  15  16
ENDBRANCH  14  15
ENDBRANCH  12  14
ENDBRANCH   1   7
TORSDOF 7
ENDMDL
