MODEL 1
REMARK VINA RESULT:      -6.3      0.000      0.000
REMARK  8 active torsions:
REMARK  status: ('A' for Active; 'I' for Inactive)
REMARK    1  A    between atoms: C2_2  and  C3_3 
REMARK    2  A    between atoms: C3_3  and  C4_4 
REMARK    3  A    between atoms: C4_4  and  C5_5 
REMARK    4  A    between atoms: C5_5  and  C6_6 
REMARK    5  A    between atoms: C6_6  and  C7_7 
REMARK    6  A    between atoms: C7_7  and  N1_8 
REMARK    7  A    between atoms: C14_16  and  C15_17 
REMARK    8  A    between atoms: C15_17  and  O1_18 
ROOT
ATOM      1  N1  <0> d          30.640  69.910 -22.670  0.00  0.00    -0.331 N 
ATOM      2  C8  <0> d          30.745  68.870 -23.571  0.00  0.00     0.065 A 
ATOM      3  C9  <0> d          31.680  67.866 -23.784  0.00  0.00     0.032 A 
ATOM      4  C10 <0> d          31.485  66.955 -24.801  0.00  0.00     0.002 A 
ATOM      5  C11 <0> d          30.367  67.041 -25.617  0.00  0.00     0.002 A 
ATOM      6  C12 <0> d          29.433  68.019 -25.419  0.00  0.00     0.034 A 
ATOM      7  C13 <0> d          29.610  68.952 -24.394  0.00  0.00     0.085 A 
ATOM      8  N2  <0> d          28.884  70.015 -23.961  0.00  0.00    -0.231 NA
ATOM      9  C14 <0> d          29.487  70.574 -22.953  0.00  0.00     0.131 A 
ENDROOT
BRANCH   1  10
ATOM     10  C7  <0> d          31.592  70.236 -21.606  0.00  0.00     0.131 C 
BRANCH  10  11
ATOM     11  C6  <0> d          32.781  70.992 -22.200  0.00  0.00     0.020 C 
BRANCH  11  12
ATOM     12  C5  <0> d          32.565  72.498 -22.030  0.00  0.00     0.002 C 
BRANCH  12  13
ATOM     13  C4  <0> d          33.866  73.238 -22.344  0.00  0.00     0.000 C 
BRANCH  13  14
ATOM     14  C3  <0> d          33.590  74.740 -22.434  0.00  0.00    -0.000 C 
BRANCH  14  15
ATOM     15  C2  <0> d          33.493  75.326 -21.024  0.00  0.00    -0.005 C 
ATOM     16  C1  <0> d          33.149  76.815 -21.113  0.00  0.00     0.005 C 
ENDBRANCH  14  15
ENDBRANCH  13  14
ENDBRANCH  12  13
ENDBRANCH  11  12
ENDBRANCH  10  11
ENDBRANCH   1  10
BRANCH   9  17
ATOM     17  C15 <0> d          28.983  71.783 -22.207  0.00  0.00     0.242 C 
BRANCH  17  18
ATOM     18  O1  <0> d          28.249  72.623 -23.100  0.00  0.00    -0.393 OA
ATOM     19  H22 <0> d          28.798  73.245 -23.597  0.00  0.00     0.209 HD
ENDBRANCH  17  18
ENDBRANCH   9  17
TORSDOF 8
ENDMDL
MODEL 2
REMARK VINA RESULT:      -6.2      4.516      6.446
REMARK  8 active torsions:
REMARK  status: ('A' for Active; 'I' for Inactive)
REMARK    1  A    between atoms: C2_2  and  C3_3 
REMARK    2  A    between atoms: C3_3  and  C4_4 
REMARK    3  A    between atoms: C4_4  and  C5_5 
REMARK    4  A    between atoms: C5_5  and  C6_6 
REMARK    5  A    between atoms: C6_6  and  C7_7 
REMARK    6  A    between atoms: C7_7  and  N1_8 
REMARK    7  A    between atoms: C14_16  and  C15_17 
REMARK    8  A    between atoms: C15_17  and  O1_18 
ROOT
ATOM      1  N1  <0> d          29.257  68.688 -25.302  0.00  0.00    -0.331 N 
ATOM      2  C8  <0> d          28.504  68.981 -26.421  0.00  0.00     0.065 A 
ATOM      3  C9  <0> d          27.620  69.999 -26.752  0.00  0.00     0.032 A 
ATOM      4  C10 <0> d          27.014  70.001 -27.991  0.00  0.00     0.002 A 
ATOM      5  C11 <0> d          27.277  68.991 -28.904  0.00  0.00     0.002 A 
ATOM      6  C12 <0> d          28.148  67.984 -28.598  0.00  0.00     0.034 A 
ATOM      7  C13 <0> d          28.773  67.961 -27.348  0.00  0.00     0.085 A 
ATOM      8  N2  <0> d          29.659  67.116 -26.760  0.00  0.00    -0.231 NA
ATOM      9  C14 <0> d          29.940  67.541 -25.564  0.00  0.00     0.131 A 
ENDROOT
BRANCH   1  10
ATOM     10  C7  <0> d          29.310  69.467 -24.062  0.00  0.00     0.131 C 
BRANCH  10  11
ATOM     11  C6  <0> d          28.408  68.816 -23.012  0.00  0.00     0.020 C 
BRANCH  11  12
ATOM     12  C5  <0> d          27.015  69.446 -23.075  0.00  0.00     0.002 C 
BRANCH  12  13
ATOM     13  C4  <0> d          26.348  69.347 -21.702  0.00  0.00     0.000 C 
BRANCH  13  14
ATOM     14  C3  <0> d          27.229  68.517 -20.766  0.00  0.00    -0.000 C 
BRANCH  14  15
ATOM     15  C2  <0> d          26.496  68.293 -19.441  0.00  0.00    -0.005 C 
ATOM     16  C1  <0> d          26.011  66.844 -19.366  0.00  0.00     0.005 C 
ENDBRANCH  14  15
ENDBRANCH  13  14
ENDBRANCH  12  13
ENDBRANCH  11  12
ENDBRANCH  10  11
ENDBRANCH   1  10
BRANCH   9  17
ATOM     17  C15 <0> d          30.888  66.864 -24.606  0.00  0.00     0.242 C 
BRANCH  17  18
ATOM     18  O1  <0> d          32.121  66.587 -25.271  0.00  0.00    -0.393 OA
ATOM     19  H22 <0> d          32.896  66.623 -24.694  0.00  0.00     0.209 HD
ENDBRANCH  17  18
ENDBRANCH   9  17
TORSDOF 8
ENDMDL
MODEL 3
REMARK VINA RESULT:      -6.1      4.423      6.462
REMARK  8 active torsions:
REMARK  status: ('A' for Active; 'I' for Inactive)
REMARK    1  A    between atoms: C2_2  and  C3_3 
REMARK    2  A    between atoms: C3_3  and  C4_4 
REMARK    3  A    between atoms: C4_4  and  C5_5 
REMARK    4  A    between atoms: C5_5  and  C6_6 
REMARK    5  A    between atoms: C6_6  and  C7_7 
REMARK    6  A    between atoms: C7_7  and  N1_8 
REMARK    7  A    between atoms: C14_16  and  C15_17 
REMARK    8  A    between atoms: C15_17  and  O1_18 
ROOT
ATOM      1  N1  <0> d          29.352  68.657 -25.280  0.00  0.00    -0.331 N 
ATOM      2  C8  <0> d          28.597  69.106 -26.345  0.00  0.00     0.065 A 
ATOM      3  C9  <0> d          27.847  70.249 -26.585  0.00  0.00     0.032 A 
ATOM      4  C10 <0> d          27.193  70.397 -27.791  0.00  0.00     0.002 A 
ATOM      5  C11 <0> d          27.276  69.409 -28.761  0.00  0.00     0.002 A 
ATOM      6  C12 <0> d          28.015  68.280 -28.545  0.00  0.00     0.034 A 
ATOM      7  C13 <0> d          28.685  68.109 -27.331  0.00  0.00     0.085 A 
ATOM      8  N2  <0> d          29.472  67.124 -26.827  0.00  0.00    -0.231 NA
ATOM      9  C14 <0> d          29.861  67.445 -25.628  0.00  0.00     0.131 A 
ENDROOT
BRANCH   1  10
ATOM     10  C7  <0> d          29.564  69.357 -24.011  0.00  0.00     0.131 C 
BRANCH  10  11
ATOM     11  C6  <0> d          28.513  68.903 -22.997  0.00  0.00     0.020 C 
BRANCH  11  12
ATOM     12  C5  <0> d          27.796  70.128 -22.422  0.00  0.00     0.002 C 
BRANCH  12  13
ATOM     13  C4  <0> d          26.350  69.762 -22.088  0.00  0.00     0.000 C 
BRANCH  13  14
ATOM     14  C3  <0> d          25.418  70.329 -23.162  0.00  0.00    -0.000 C 
BRANCH  14  15
ATOM     15  C2  <0> d          24.587  69.195 -23.766  0.00  0.00    -0.005 C 
ATOM     16  C1  <0> d          24.625  69.295 -25.293  0.00  0.00     0.005 C 
ENDBRANCH  14  15
ENDBRANCH  13  14
ENDBRANCH  12  13
ENDBRANCH  11  12
ENDBRANCH  10  11
ENDBRANCH   1  10
BRANCH   9  17
ATOM     17  C15 <0> d          30.748  66.598 -24.751  0.00  0.00     0.242 C 
BRANCH  17  18
ATOM     18  O1  <0> d          32.081  66.616 -25.262  0.00  0.00    -0.393 OA
ATOM     19  H22 <0> d          32.516  65.753 -25.258  0.00  0.00     0.209 HD
ENDBRANCH  17  18
ENDBRANCH   9  17
TORSDOF 8
ENDMDL
MODEL 4
REMARK VINA RESULT:      -6.1      4.692      6.722
REMARK  8 active torsions:
REMARK  status: ('A' for Active; 'I' for Inactive)
REMARK    1  A    between atoms: C2_2  and  C3_3 
REMARK    2  A    between atoms: C3_3  and  C4_4 
REMARK    3  A    between atoms: C4_4  and  C5_5 
REMARK    4  A    between atoms: C5_5  and  C6_6 
REMARK    5  A    between atoms: C6_6  and  C7_7 
REMARK    6  A    between atoms: C7_7  and  N1_8 
REMARK    7  A    between atoms: C14_16  and  C15_17 
REMARK    8  A    between atoms: C15_17  and  O1_18 
ROOT
ATOM      1  N1  <0> d          28.086  69.617 -26.710  0.00  0.00    -0.331 N 
ATOM      2  C8  <0> d          28.927  68.993 -25.812  0.00  0.00     0.065 A 
ATOM      3  C9  <0> d          29.377  69.300 -24.534  0.00  0.00     0.032 A 
ATOM      4  C10 <0> d          30.240  68.439 -23.889  0.00  0.00     0.002 A 
ATOM      5  C11 <0> d          30.666  67.274 -24.509  0.00  0.00     0.002 A 
ATOM      6  C12 <0> d          30.229  66.953 -25.764  0.00  0.00     0.034 A 
ATOM      7  C13 <0> d          29.355  67.810 -26.437  0.00  0.00     0.085 A 
ATOM      8  N2  <0> d          28.764  67.774 -27.659  0.00  0.00    -0.231 NA
ATOM      9  C14 <0> d          28.023  68.831 -27.818  0.00  0.00     0.131 A 
ENDROOT
BRANCH   1  10
ATOM     10  C7  <0> d          27.390  70.890 -26.508  0.00  0.00     0.131 C 
BRANCH  10  11
ATOM     11  C6  <0> d          26.496  70.792 -25.272  0.00  0.00     0.020 C 
BRANCH  11  12
ATOM     12  C5  <0> d          25.364  69.796 -25.538  0.00  0.00     0.002 C 
BRANCH  12  13
ATOM     13  C4  <0> d          24.862  69.227 -24.210  0.00  0.00     0.000 C 
BRANCH  13  14
ATOM     14  C3  <0> d          25.894  69.503 -23.114  0.00  0.00    -0.000 C 
BRANCH  14  15
ATOM     15  C2  <0> d          25.271  69.222 -21.744  0.00  0.00    -0.005 C 
ATOM     16  C1  <0> d          23.746  69.276 -21.858  0.00  0.00     0.005 C 
ENDBRANCH  14  15
ENDBRANCH  13  14
ENDBRANCH  12  13
ENDBRANCH  11  12
ENDBRANCH  10  11
ENDBRANCH   1  10
BRANCH   9  17
ATOM     17  C15 <0> d          27.212  69.139 -29.051  0.00  0.00     0.242 C 
BRANCH  17  18
ATOM     18  O1  <0> d          28.008  69.886 -29.971  0.00  0.00    -0.393 OA
ATOM     19  H22 <0> d          27.515  70.557 -30.464  0.00  0.00     0.209 HD
ENDBRANCH  17  18
ENDBRANCH   9  17
TORSDOF 8
ENDMDL
MODEL 5
REMARK VINA RESULT:      -5.9      2.800      4.485
REMARK  8 active torsions:
REMARK  status: ('A' for Active; 'I' for Inactive)
REMARK    1  A    between atoms: C2_2  and  C3_3 
REMARK    2  A    between atoms: C3_3  and  C4_4 
REMARK    3  A    between atoms: C4_4  and  C5_5 
REMARK    4  A    between atoms: C5_5  and  C6_6 
REMARK    5  A    between atoms: C6_6  and  C7_7 
REMARK    6  A    between atoms: C7_7  and  N1_8 
REMARK    7  A    between atoms: C14_16  and  C15_17 
REMARK    8  A    between atoms: C15_17  and  O1_18 
ROOT
ATOM      1  N1  <0> d          29.129  68.339 -25.052  0.00  0.00    -0.331 N 
ATOM      2  C8  <0> d          28.394  68.962 -26.040  0.00  0.00     0.065 A 
ATOM      3  C9  <0> d          27.539  70.056 -26.064  0.00  0.00     0.032 A 
ATOM      4  C10 <0> d          26.944  70.431 -27.251  0.00  0.00     0.002 A 
ATOM      5  C11 <0> d          27.188  69.720 -28.416  0.00  0.00     0.002 A 
ATOM      6  C12 <0> d          28.030  68.643 -28.412  0.00  0.00     0.034 A 
ATOM      7  C13 <0> d          28.644  68.245 -27.221  0.00  0.00     0.085 A 
ATOM      8  N2  <0> d          29.503  67.243 -26.901  0.00  0.00    -0.231 NA
ATOM      9  C14 <0> d          29.785  67.299 -25.633  0.00  0.00     0.131 A 
ENDROOT
BRANCH   1  10
ATOM     10  C7  <0> d          29.192  68.727 -23.641  0.00  0.00     0.131 C 
BRANCH  10  11
ATOM     11  C6  <0> d          30.303  69.760 -23.445  0.00  0.00     0.020 C 
BRANCH  11  12
ATOM     12  C5  <0> d          31.527  69.081 -22.825  0.00  0.00     0.002 C 
BRANCH  12  13
ATOM     13  C4  <0> d          32.138  70.001 -21.767  0.00  0.00     0.000 C 
BRANCH  13  14
ATOM     14  C3  <0> d          33.498  70.507 -22.254  0.00  0.00    -0.000 C 
BRANCH  14  15
ATOM     15  C2  <0> d          33.433  72.022 -22.462  0.00  0.00    -0.005 C 
ATOM     16  C1  <0> d          32.268  72.598 -21.654  0.00  0.00     0.005 C 
ENDBRANCH  14  15
ENDBRANCH  13  14
ENDBRANCH  12  13
ENDBRANCH  11  12
ENDBRANCH  10  11
ENDBRANCH   1  10
BRANCH   9  17
ATOM     17  C15 <0> d          30.706  66.348 -24.910  0.00  0.00     0.242 C 
BRANCH  17  18
ATOM     18  O1  <0> d          32.058  66.617 -25.285  0.00  0.00    -0.393 OA
ATOM     19  H22 <0> d          32.221  66.564 -26.237  0.00  0.00     0.209 HD
ENDBRANCH  17  18
ENDBRANCH   9  17
TORSDOF 8
ENDMDL
MODEL 6
REMARK VINA RESULT:      -5.8     25.292     27.843
REMARK  8 active torsions:
REMARK  status: ('A' for Active; 'I' for Inactive)
REMARK    1  A    between atoms: C2_2  and  C3_3 
REMARK    2  A    between atoms: C3_3  and  C4_4 
REMARK    3  A    between atoms: C4_4  and  C5_5 
REMARK    4  A    between atoms: C5_5  and  C6_6 
REMARK    5  A    between atoms: C6_6  and  C7_7 
REMARK    6  A    between atoms: C7_7  and  N1_8 
REMARK    7  A    between atoms: C14_16  and  C15_17 
REMARK    8  A    between atoms: C15_17  and  O1_18 
ROOT
ATOM      1  N1  <0> d           8.758  53.126 -27.107  0.00  0.00    -0.331 N 
ATOM      2  C8  <0> d          10.035  52.663 -26.859  0.00  0.00     0.065 A 
ATOM      3  C9  <0> d          11.260  52.817 -27.494  0.00  0.00     0.032 A 
ATOM      4  C10 <0> d          12.380  52.202 -26.975  0.00  0.00     0.002 A 
ATOM      5  C11 <0> d          12.289  51.426 -25.830  0.00  0.00     0.002 A 
ATOM      6  C12 <0> d          11.093  51.267 -25.188  0.00  0.00     0.034 A 
ATOM      7  C13 <0> d           9.944  51.881 -25.696  0.00  0.00     0.085 A 
ATOM      8  N2  <0> d           8.645  51.908 -25.301  0.00  0.00    -0.231 NA
ATOM      9  C14 <0> d           7.953  52.636 -26.127  0.00  0.00     0.131 A 
ENDROOT
BRANCH   1  10
ATOM     10  C7  <0> d           8.348  53.987 -28.219  0.00  0.00     0.131 C 
BRANCH  10  11
ATOM     11  C6  <0> d           8.417  55.451 -27.782  0.00  0.00     0.020 C 
BRANCH  11  12
ATOM     12  C5  <0> d           9.371  56.214 -28.704  0.00  0.00     0.002 C 
BRANCH  12  13
ATOM     13  C4  <0> d          10.568  56.718 -27.895  0.00  0.00     0.000 C 
BRANCH  13  14
ATOM     14  C3  <0> d          11.837  56.000 -28.361  0.00  0.00    -0.000 C 
BRANCH  14  15
ATOM     15  C2  <0> d          12.605  56.900 -29.331  0.00  0.00    -0.005 C 
ATOM     16  C1  <0> d          13.152  56.055 -30.485  0.00  0.00     0.005 C 
ENDBRANCH  14  15
ENDBRANCH  13  14
ENDBRANCH  12  13
ENDBRANCH  11  12
ENDBRANCH  10  11
ENDBRANCH   1  10
BRANCH   9  17
ATOM     17  C15 <0> d           6.473  52.899 -26.015  0.00  0.00     0.242 C 
BRANCH  17  18
ATOM     18  O1  <0> d           5.958  52.243 -24.855  0.00  0.00    -0.393 OA
ATOM     19  H22 <0> d           5.799  51.296 -24.976  0.00  0.00     0.209 HD
ENDBRANCH  17  18
ENDBRANCH   9  17
TORSDOF 8
ENDMDL
MODEL 7
REMARK VINA RESULT:      -5.6      2.612      4.464
REMARK  8 active torsions:
REMARK  status: ('A' for Active; 'I' for Inactive)
REMARK    1  A    between atoms: C2_2  and  C3_3 
REMARK    2  A    between atoms: C3_3  and  C4_4 
REMARK    3  A    between atoms: C4_4  and  C5_5 
REMARK    4  A    between atoms: C5_5  and  C6_6 
REMARK    5  A    between atoms: C6_6  and  C7_7 
REMARK    6  A    between atoms: C7_7  and  N1_8 
REMARK    7  A    between atoms: C14_16  and  C15_17 
REMARK    8  A    between atoms: C15_17  and  O1_18 
ROOT
ATOM      1  N1  <0> d          28.210  69.527 -25.315  0.00  0.00    -0.331 N 
ATOM      2  C8  <0> d          27.863  69.570 -26.650  0.00  0.00     0.065 A 
ATOM      3  C9  <0> d          27.961  68.671 -27.704  0.00  0.00     0.032 A 
ATOM      4  C10 <0> d          27.508  69.034 -28.955  0.00  0.00     0.002 A 
ATOM      5  C11 <0> d          26.962  70.291 -29.168  0.00  0.00     0.002 A 
ATOM      6  C12 <0> d          26.853  71.186 -28.142  0.00  0.00     0.034 A 
ATOM      7  C13 <0> d          27.305  70.841 -26.866  0.00  0.00     0.085 A 
ATOM      8  N2  <0> d          27.339  71.494 -25.676  0.00  0.00    -0.231 NA
ATOM      9  C14 <0> d          27.869  70.725 -24.770  0.00  0.00     0.131 A 
ENDROOT
BRANCH   1  10
ATOM     10  C7  <0> d          28.831  68.400 -24.615  0.00  0.00     0.131 C 
BRANCH  10  11
ATOM     11  C6  <0> d          30.326  68.362 -24.934  0.00  0.00     0.020 C 
BRANCH  11  12
ATOM     12  C5  <0> d          31.120  68.834 -23.714  0.00  0.00     0.002 C 
BRANCH  12  13
ATOM     13  C4  <0> d          32.568  68.354 -23.831  0.00  0.00     0.000 C 
BRANCH  13  14
ATOM     14  C3  <0> d          33.514  69.476 -23.400  0.00  0.00    -0.000 C 
BRANCH  14  15
ATOM     15  C2  <0> d          32.894  70.248 -22.234  0.00  0.00    -0.005 C 
ATOM     16  C1  <0> d          33.258  71.730 -22.352  0.00  0.00     0.005 C 
ENDBRANCH  14  15
ENDBRANCH  13  14
ENDBRANCH  12  13
ENDBRANCH  11  12
ENDBRANCH  10  11
ENDBRANCH   1  10
BRANCH   9  17
ATOM     17  C15 <0> d          28.074  71.106 -23.326  0.00  0.00     0.242 C 
BRANCH  17  18
ATOM     18  O1  <0> d          28.225  72.523 -23.223  0.00  0.00    -0.393 OA
ATOM     19  H22 <0> d          29.078  72.852 -23.540  0.00  0.00     0.209 HD
ENDBRANCH  17  18
ENDBRANCH   9  17
TORSDOF 8
ENDMDL
MODEL 8
REMARK VINA RESULT:      -5.6     26.187     28.465
REMARK  8 active torsions:
REMARK  status: ('A' for Active; 'I' for Inactive)
REMARK    1  A    between atoms: C2_2  and  C3_3 
REMARK    2  A    between atoms: C3_3  and  C4_4 
REMARK    3  A    between atoms: C4_4  and  C5_5 
REMARK    4  A    between atoms: C5_5  and  C6_6 
REMARK    5  A    between atoms: C6_6  and  C7_7 
REMARK    6  A    between atoms: C7_7  and  N1_8 
REMARK    7  A    between atoms: C14_16  and  C15_17 
REMARK    8  A    between atoms: C15_17  and  O1_18 
ROOT
ATOM      1  N1  <0> d           9.191  53.150 -27.169  0.00  0.00    -0.331 N 
ATOM      2  C8  <0> d           9.907  54.241 -27.619  0.00  0.00     0.065 A 
ATOM      3  C9  <0> d          11.240  54.457 -27.938  0.00  0.00     0.032 A 
ATOM      4  C10 <0> d          11.646  55.703 -28.371  0.00  0.00     0.002 A 
ATOM      5  C11 <0> d          10.732  56.740 -28.482  0.00  0.00     0.002 A 
ATOM      6  C12 <0> d           9.414  56.544 -28.178  0.00  0.00     0.034 A 
ATOM      7  C13 <0> d           8.981  55.291 -27.737  0.00  0.00     0.085 A 
ATOM      8  N2  <0> d           7.773  54.796 -27.362  0.00  0.00    -0.231 NA
ATOM      9  C14 <0> d           7.897  53.545 -27.030  0.00  0.00     0.131 A 
ENDROOT
BRANCH   1  10
ATOM     10  C7  <0> d           9.726  51.814 -26.894  0.00  0.00     0.131 C 
BRANCH  10  11
ATOM     11  C6  <0> d          10.134  51.722 -25.423  0.00  0.00     0.020 C 
BRANCH  11  12
ATOM     12  C5  <0> d          11.540  51.126 -25.319  0.00  0.00     0.002 C 
BRANCH  12  13
ATOM     13  C4  <0> d          12.296  51.373 -26.625  0.00  0.00     0.000 C 
BRANCH  13  14
ATOM     14  C3  <0> d          12.999  50.085 -27.060  0.00  0.00    -0.000 C 
BRANCH  14  15
ATOM     15  C2  <0> d          12.170  48.877 -26.617  0.00  0.00    -0.005 C 
ATOM     16  C1  <0> d          12.991  47.600 -26.806  0.00  0.00     0.005 C 
ENDBRANCH  14  15
ENDBRANCH  13  14
ENDBRANCH  12  13
ENDBRANCH  11  12
ENDBRANCH  10  11
ENDBRANCH   1  10
BRANCH   9  17
ATOM     17  C15 <0> d           6.770  52.660 -26.560  0.00  0.00     0.242 C 
BRANCH  17  18
ATOM     18  O1  <0> d           6.736  52.650 -25.132  0.00  0.00    -0.393 OA
ATOM     19  H22 <0> d           5.986  53.129 -24.753  0.00  0.00     0.209 HD
ENDBRANCH  17  18
ENDBRANCH   9  17
TORSDOF 8
ENDMDL
MODEL 9
REMARK VINA RESULT:      -5.5     26.268     27.987
REMARK  8 active torsions:
REMARK  status: ('A' for Active; 'I' for Inactive)
REMARK    1  A    between atoms: C2_2  and  C3_3 
REMARK    2  A    between atoms: C3_3  and  C4_4 
REMARK    3  A    between atoms: C4_4  and  C5_5 
REMARK    4  A    between atoms: C5_5  and  C6_6 
REMARK    5  A    between atoms: C6_6  and  C7_7 
REMARK    6  A    between atoms: C7_7  and  N1_8 
REMARK    7  A    between atoms: C14_16  and  C15_17 
REMARK    8  A    between atoms: C15_17  and  O1_18 
ROOT
ATOM      1  N1  <0> d           8.721  53.145 -27.098  0.00  0.00    -0.331 N 
ATOM      2  C8  <0> d          10.001  52.697 -26.843  0.00  0.00     0.065 A 
ATOM      3  C9  <0> d          11.231  52.883 -27.461  0.00  0.00     0.032 A 
ATOM      4  C10 <0> d          12.355  52.277 -26.940  0.00  0.00     0.002 A 
ATOM      5  C11 <0> d          12.264  51.479 -25.809  0.00  0.00     0.002 A 
ATOM      6  C12 <0> d          11.063  51.290 -25.184  0.00  0.00     0.034 A 
ATOM      7  C13 <0> d           9.911  51.894 -25.694  0.00  0.00     0.085 A 
ATOM      8  N2  <0> d           8.607  51.893 -25.314  0.00  0.00    -0.231 NA
ATOM      9  C14 <0> d           7.913  52.624 -26.135  0.00  0.00     0.131 A 
ENDROOT
BRANCH   1  10
ATOM     10  C7  <0> d           8.309  54.018 -28.199  0.00  0.00     0.131 C 
BRANCH  10  11
ATOM     11  C6  <0> d           8.452  55.480 -27.771  0.00  0.00     0.020 C 
BRANCH  11  12
ATOM     12  C5  <0> d           9.706  56.078 -28.411  0.00  0.00     0.002 C 
BRANCH  12  13
ATOM     13  C4  <0> d           9.316  57.284 -29.267  0.00  0.00     0.000 C 
BRANCH  13  14
ATOM     14  C3  <0> d           9.829  58.566 -28.607  0.00  0.00    -0.000 C 
BRANCH  14  15
ATOM     15  C2  <0> d           9.100  59.773 -29.202  0.00  0.00    -0.005 C 
ATOM     16  C1  <0> d           8.088  60.308 -28.186  0.00  0.00     0.005 C 
ENDBRANCH  14  15
ENDBRANCH  13  14
ENDBRANCH  12  13
ENDBRANCH  11  12
ENDBRANCH  10  11
ENDBRANCH   1  10
BRANCH   9  17
ATOM     17  C15 <0> d           6.427  52.861 -26.035  0.00  0.00     0.242 C 
BRANCH  17  18
ATOM     18  O1  <0> d           5.928  52.261 -24.840  0.00  0.00    -0.393 OA
ATOM     19  H22 <0> d           4.979  52.072 -24.860  0.00  0.00     0.209 HD
ENDBRANCH  17  18
ENDBRANCH   9  17
TORSDOF 8
ENDMDL
MODEL 10
REMARK VINA RESULT:      -5.4      3.589      5.681
REMARK  8 active torsions:
REMARK  status: ('A' for Active; 'I' for Inactive)
REMARK    1  A    between atoms: C2_2  and  C3_3 
REMARK    2  A    between atoms: C3_3  and  C4_4 
REMARK    3  A    between atoms: C4_4  and  C5_5 
REMARK    4  A    between atoms: C5_5  and  C6_6 
REMARK    5  A    between atoms: C6_6  and  C7_7 
REMARK    6  A    between atoms: C7_7  and  N1_8 
REMARK    7  A    between atoms: C14_16  and  C15_17 
REMARK    8  A    between atoms: C15_17  and  O1_18 
ROOT
ATOM      1  N1  <0> d          28.587  69.919 -24.130  0.00  0.00    -0.331 N 
ATOM      2  C8  <0> d          29.759  69.228 -23.900  0.00  0.00     0.065 A 
ATOM      3  C9  <0> d          30.820  69.391 -23.018  0.00  0.00     0.032 A 
ATOM      4  C10 <0> d          31.872  68.500 -23.045  0.00  0.00     0.002 A 
ATOM      5  C11 <0> d          31.882  67.449 -23.950  0.00  0.00     0.002 A 
ATOM      6  C12 <0> d          30.844  67.270 -24.821  0.00  0.00     0.034 A 
ATOM      7  C13 <0> d          29.767  68.160 -24.812  0.00  0.00     0.085 A 
ATOM      8  N2  <0> d          28.622  68.252 -25.537  0.00  0.00    -0.231 NA
ATOM      9  C14 <0> d          27.933  69.280 -25.137  0.00  0.00     0.131 A 
ENDROOT
BRANCH   1  10
ATOM     10  C7  <0> d          28.130  71.116 -23.420  0.00  0.00     0.131 C 
BRANCH  10  11
ATOM     11  C6  <0> d          27.754  70.746 -21.985  0.00  0.00     0.020 C 
BRANCH  11  12
ATOM     12  C5  <0> d          26.250  70.478 -21.905  0.00  0.00     0.002 C 
BRANCH  12  13
ATOM     13  C4  <0> d          26.011  69.081 -21.329  0.00  0.00     0.000 C 
BRANCH  13  14
ATOM     14  C3  <0> d          27.323  68.529 -20.769  0.00  0.00    -0.000 C 
BRANCH  14  15
ATOM     15  C2  <0> d          27.088  67.988 -19.357  0.00  0.00    -0.005 C 
ATOM     16  C1  <0> d          25.962  66.952 -19.389  0.00  0.00     0.005 C 
ENDBRANCH  14  15
ENDBRANCH  13  14
ENDBRANCH  12  13
ENDBRANCH  11  12
ENDBRANCH  10  11
ENDBRANCH   1  10
BRANCH   9  17
ATOM     17  C15 <0> d          26.602  69.702 -25.707  0.00  0.00     0.242 C 
BRANCH  17  18
ATOM     18  O1  <0> d          25.548  69.138 -24.926  0.00  0.00    -0.393 OA
ATOM     19  H22 <0> d          25.704  68.221 -24.659  0.00  0.00     0.209 HD
ENDBRANCH  17  18
ENDBRANCH   9  17
TORSDOF 8
ENDMDL
