MODEL 1
REMARK VINA RESULT:      -8.9      0.000      0.000
REMARK  3 active torsions:
REMARK  status: ('A' for Active; 'I' for Inactive)
REMARK    1  A    between atoms: C3_3  and  C7_8 
REMARK    2  A    between atoms: C9_11  and  C10_12 
REMARK    3  A    between atoms: C14_16  and  N2_18 
ROOT
ATOM      1  C7  <0> d          29.372  68.411 -25.404  0.00  0.00     0.184 A 
ATOM      2  N1  <0> d          29.988  69.001 -24.416  0.00  0.00    -0.218 NA
ATOM      3  C8  <0> d          31.115  68.297 -24.109  0.00  0.00     0.136 A 
ATOM      4  C9  <0> d          32.038  68.583 -23.127  0.00  0.00     0.049 C 
ATOM      5  C16 <0> d          31.141  67.166 -25.058  0.00  0.00     0.318 A 
ATOM      6  O3  <0> d          31.981  66.288 -25.138  0.00  0.00    -0.257 OA
ATOM      7  O4  <0> d          30.035  67.314 -25.816  0.00  0.00    -0.254 OA
ENDROOT
BRANCH   4   8
ATOM      8  C10 <0> d          31.914  69.817 -22.344  0.00  0.00    -0.031 A 
ATOM      9  C15 <0> d          32.649  70.955 -22.703  0.00  0.00     0.049 A 
ATOM     10  C14 <0> d          32.527  72.111 -21.963  0.00  0.00     0.121 A 
ATOM     11  C13 <0> d          31.682  72.149 -20.865  0.00  0.00     0.044 A 
ATOM     12  C12 <0> d          30.953  71.027 -20.503  0.00  0.00     0.022 A 
ATOM     13 Br2  <0> d          31.524  73.739 -19.854  0.00  0.00    -0.048 Br
ATOM     14  C11 <0> d          31.058  69.866 -21.236  0.00  0.00     0.013 A 
BRANCH  10  15
ATOM     15  N2  <0> d          33.301  73.314 -22.340  0.00  0.00    -0.114 N 
ATOM     16  O1  <0> d          32.720  74.338 -22.653  0.00  0.00    -0.532 OA
ATOM     17  O2  <0> d          34.519  73.282 -22.335  0.00  0.00    -0.532 OA
ENDBRANCH  10  15
ENDBRANCH   4   8
BRANCH   1  18
ATOM     18  C3  <0> d          28.110  68.893 -26.000  0.00  0.00     0.018 A 
ATOM     19  C2  <0> d          27.956  68.923 -27.387  0.00  0.00     0.016 A 
ATOM     20  C1  <0> d          26.776  69.380 -27.938  0.00  0.00     0.002 A 
ATOM     21  C6  <0> d          25.745  69.803 -27.119  0.00  0.00     0.019 A 
ATOM     22  C5  <0> d          25.888  69.771 -25.741  0.00  0.00     0.012 A 
ATOM     23  C4  <0> d          27.062  69.317 -25.178  0.00  0.00     0.035 A 
ATOM     24 Br1  <0> d          24.472  70.352 -24.631  0.00  0.00    -0.051 Br
ENDBRANCH   1  18
TORSDOF 3
ENDMDL
MODEL 2
REMARK VINA RESULT:      -8.8      2.011      2.258
REMARK  3 active torsions:
REMARK  status: ('A' for Active; 'I' for Inactive)
REMARK    1  A    between atoms: C3_3  and  C7_8 
REMARK    2  A    between atoms: C9_11  and  C10_12 
REMARK    3  A    between atoms: C14_16  and  N2_18 
ROOT
ATOM      1  C7  <0> d          29.173  68.450 -26.043  0.00  0.00     0.184 A 
ATOM      2  N1  <0> d          29.934  68.965 -25.118  0.00  0.00    -0.218 NA
ATOM      3  C8  <0> d          30.621  67.963 -24.497  0.00  0.00     0.136 A 
ATOM      4  C9  <0> d          31.525  68.084 -23.464  0.00  0.00     0.049 C 
ATOM      5  C16 <0> d          30.195  66.720 -25.170  0.00  0.00     0.318 A 
ATOM      6  O3  <0> d          30.566  65.586 -24.931  0.00  0.00    -0.257 OA
ATOM      7  O4  <0> d          29.305  67.111 -26.107  0.00  0.00    -0.254 OA
ENDROOT
BRANCH   4   8
ATOM      8  C10 <0> d          31.917  69.414 -22.988  0.00  0.00    -0.031 A 
ATOM      9  C15 <0> d          31.062  70.142 -22.148  0.00  0.00     0.049 A 
ATOM     10  C14 <0> d          31.437  71.391 -21.704  0.00  0.00     0.121 A 
ATOM     11  C13 <0> d          32.655  71.929 -22.087  0.00  0.00     0.044 A 
ATOM     12  C12 <0> d          33.506  71.217 -22.918  0.00  0.00     0.022 A 
ATOM     13 Br2  <0> d          33.160  73.646 -21.474  0.00  0.00    -0.048 Br
ATOM     14  C11 <0> d          33.149  69.964 -23.365  0.00  0.00     0.013 A 
BRANCH  10  15
ATOM     15  N2  <0> d          30.537  72.160 -20.817  0.00  0.00    -0.114 N 
ATOM     16  O1  <0> d          29.634  72.825 -21.294  0.00  0.00    -0.532 OA
ATOM     17  O2  <0> d          30.698  72.128 -19.610  0.00  0.00    -0.532 OA
ENDBRANCH  10  15
ENDBRANCH   4   8
BRANCH   1  18
ATOM     18  C3  <0> d          28.283  69.239 -26.918  0.00  0.00     0.018 A 
ATOM     19  C2  <0> d          27.832  68.703 -28.126  0.00  0.00     0.016 A 
ATOM     20  C1  <0> d          27.004  69.448 -28.942  0.00  0.00     0.002 A 
ATOM     21  C6  <0> d          26.618  70.721 -28.563  0.00  0.00     0.019 A 
ATOM     22  C5  <0> d          27.057  71.257 -27.364  0.00  0.00     0.012 A 
ATOM     23  C4  <0> d          27.885  70.524 -26.540  0.00  0.00     0.035 A 
ATOM     24 Br1  <0> d          26.523  72.999 -26.857  0.00  0.00    -0.051 Br
ENDBRANCH   1  18
TORSDOF 3
ENDMDL
MODEL 3
REMARK VINA RESULT:      -8.4      2.285      2.551
REMARK  3 active torsions:
REMARK  status: ('A' for Active; 'I' for Inactive)
REMARK    1  A    between atoms: C3_3  and  C7_8 
REMARK    2  A    between atoms: C9_11  and  C10_12 
REMARK    3  A    between atoms: C14_16  and  N2_18 
ROOT
ATOM      1  C7  <0> d          29.338  68.524 -25.229  0.00  0.00     0.184 A 
ATOM      2  N1  <0> d          29.867  69.090 -24.179  0.00  0.00    -0.218 NA
ATOM      3  C8  <0> d          31.037  68.459 -23.873  0.00  0.00     0.136 A 
ATOM      4  C9  <0> d          31.897  68.748 -22.837  0.00  0.00     0.049 C 
ATOM      5  C16 <0> d          31.190  67.403 -24.893  0.00  0.00     0.318 A 
ATOM      6  O3  <0> d          32.102  66.603 -24.997  0.00  0.00    -0.257 OA
ATOM      7  O4  <0> d          30.104  67.514 -25.686  0.00  0.00    -0.254 OA
ENDROOT
BRANCH   4   8
ATOM      8  C10 <0> d          31.643  69.910 -21.979  0.00  0.00    -0.031 A 
ATOM      9  C15 <0> d          30.863  69.775 -20.822  0.00  0.00     0.049 A 
ATOM     10  C14 <0> d          30.629  70.871 -20.022  0.00  0.00     0.121 A 
ATOM     11  C13 <0> d          31.163  72.106 -20.357  0.00  0.00     0.044 A 
ATOM     12  C12 <0> d          31.934  72.248 -21.499  0.00  0.00     0.022 A 
ATOM     13 Br2  <0> d          30.834  73.604 -19.252  0.00  0.00    -0.048 Br
ATOM     14  C11 <0> d          32.183  71.161 -22.308  0.00  0.00     0.013 A 
BRANCH  10  15
ATOM     15  N2  <0> d          29.807  70.731 -18.799  0.00  0.00    -0.114 N 
ATOM     16  O1  <0> d          30.338  70.474 -17.734  0.00  0.00    -0.532 OA
ATOM     17  O2  <0> d          28.598  70.874 -18.859  0.00  0.00    -0.532 OA
ENDBRANCH  10  15
ENDBRANCH   4   8
BRANCH   1  18
ATOM     18  C3  <0> d          28.063  68.944 -25.844  0.00  0.00     0.018 A 
ATOM     19  C2  <0> d          27.928  68.966 -27.233  0.00  0.00     0.016 A 
ATOM     20  C1  <0> d          26.735  69.365 -27.801  0.00  0.00     0.002 A 
ATOM     21  C6  <0> d          25.673  69.738 -26.998  0.00  0.00     0.019 A 
ATOM     22  C5  <0> d          25.798  69.715 -25.619  0.00  0.00     0.012 A 
ATOM     23  C4  <0> d          26.985  69.318 -25.038  0.00  0.00     0.035 A 
ATOM     24 Br1  <0> d          24.340  70.227 -24.530  0.00  0.00    -0.051 Br
ENDBRANCH   1  18
TORSDOF 3
ENDMDL
MODEL 4
REMARK VINA RESULT:      -8.1      3.026      7.202
REMARK  3 active torsions:
REMARK  status: ('A' for Active; 'I' for Inactive)
REMARK    1  A    between atoms: C3_3  and  C7_8 
REMARK    2  A    between atoms: C9_11  and  C10_12 
REMARK    3  A    between atoms: C14_16  and  N2_18 
ROOT
ATOM      1  C7  <0> d          29.826  69.702 -21.549  0.00  0.00     0.184 A 
ATOM      2  N1  <0> d          28.799  69.596 -22.346  0.00  0.00    -0.218 NA
ATOM      3  C8  <0> d          27.697  69.264 -21.613  0.00  0.00     0.136 A 
ATOM      4  C9  <0> d          26.417  69.056 -22.077  0.00  0.00     0.049 C 
ATOM      5  C16 <0> d          28.166  69.180 -20.216  0.00  0.00     0.318 A 
ATOM      6  O3  <0> d          27.505  68.913 -19.230  0.00  0.00    -0.257 OA
ATOM      7  O4  <0> d          29.485  69.464 -20.268  0.00  0.00    -0.254 OA
ENDROOT
BRANCH   4   8
ATOM      8  C10 <0> d          26.103  69.291 -23.490  0.00  0.00    -0.031 A 
ATOM      9  C15 <0> d          27.135  69.490 -24.417  0.00  0.00     0.049 A 
ATOM     10  C14 <0> d          26.833  69.711 -25.743  0.00  0.00     0.121 A 
ATOM     11  C13 <0> d          25.512  69.737 -26.160  0.00  0.00     0.044 A 
ATOM     12  C12 <0> d          24.485  69.542 -25.250  0.00  0.00     0.022 A 
ATOM     13 Br2  <0> d          25.107  70.042 -27.983  0.00  0.00    -0.048 Br
ATOM     14  C11 <0> d          24.770  69.314 -23.922  0.00  0.00     0.013 A 
BRANCH  10  15
ATOM     15  N2  <0> d          27.921  69.920 -26.724  0.00  0.00    -0.114 N 
ATOM     16  O1  <0> d          28.321  71.046 -26.957  0.00  0.00    -0.532 OA
ATOM     17  O2  <0> d          28.416  68.966 -27.296  0.00  0.00    -0.532 OA
ENDBRANCH  10  15
ENDBRANCH   4   8
BRANCH   1  18
ATOM     18  C3  <0> d          31.190  70.046 -21.995  0.00  0.00     0.018 A 
ATOM     19  C2  <0> d          32.014  69.068 -22.554  0.00  0.00     0.016 A 
ATOM     20  C1  <0> d          33.290  69.396 -22.964  0.00  0.00     0.002 A 
ATOM     21  C6  <0> d          33.753  70.692 -22.827  0.00  0.00     0.019 A 
ATOM     22  C5  <0> d          32.940  71.669 -22.277  0.00  0.00     0.012 A 
ATOM     23  C4  <0> d          31.662  71.355 -21.863  0.00  0.00     0.035 A 
ATOM     24 Br1  <0> d          33.583  73.438 -22.093  0.00  0.00    -0.051 Br
ENDBRANCH   1  18
TORSDOF 3
ENDMDL
MODEL 5
REMARK VINA RESULT:      -7.7      2.161      2.910
REMARK  3 active torsions:
REMARK  status: ('A' for Active; 'I' for Inactive)
REMARK    1  A    between atoms: C3_3  and  C7_8 
REMARK    2  A    between atoms: C9_11  and  C10_12 
REMARK    3  A    between atoms: C14_16  and  N2_18 
ROOT
ATOM      1  C7  <0> d          27.744  69.463 -27.108  0.00  0.00     0.184 A 
ATOM      2  N1  <0> d          28.504  69.417 -26.049  0.00  0.00    -0.218 NA
ATOM      3  C8  <0> d          29.294  68.307 -26.114  0.00  0.00     0.136 A 
ATOM      4  C9  <0> d          30.232  67.893 -25.193  0.00  0.00     0.049 C 
ATOM      5  C16 <0> d          28.937  67.646 -27.384  0.00  0.00     0.318 A 
ATOM      6  O3  <0> d          29.407  66.620 -27.841  0.00  0.00    -0.257 OA
ATOM      7  O4  <0> d          27.978  68.423 -27.931  0.00  0.00    -0.254 OA
ENDROOT
BRANCH   4   8
ATOM      8  C10 <0> d          30.539  68.736 -24.033  0.00  0.00    -0.031 A 
ATOM      9  C15 <0> d          31.813  69.305 -23.894  0.00  0.00     0.049 A 
ATOM     10  C14 <0> d          32.094  70.095 -22.801  0.00  0.00     0.121 A 
ATOM     11  C13 <0> d          31.123  70.327 -21.841  0.00  0.00     0.044 A 
ATOM     12  C12 <0> d          29.862  69.767 -21.970  0.00  0.00     0.022 A 
ATOM     13 Br2  <0> d          31.520  71.412 -20.344  0.00  0.00    -0.048 Br
ATOM     14  C11 <0> d          29.562  68.980 -23.060  0.00  0.00     0.013 A 
BRANCH  10  15
ATOM     15  N2  <0> d          33.437  70.698 -22.652  0.00  0.00    -0.114 N 
ATOM     16  O1  <0> d          33.646  71.827 -23.060  0.00  0.00    -0.532 OA
ATOM     17  O2  <0> d          34.333  70.066 -22.122  0.00  0.00    -0.532 OA
ENDBRANCH  10  15
ENDBRANCH   4   8
BRANCH   1  18
ATOM     18  C3  <0> d          26.756  70.527 -27.374  0.00  0.00     0.018 A 
ATOM     19  C2  <0> d          27.045  71.852 -27.041  0.00  0.00     0.016 A 
ATOM     20  C1  <0> d          26.114  72.841 -27.288  0.00  0.00     0.002 A 
ATOM     21  C6  <0> d          24.900  72.523 -27.868  0.00  0.00     0.019 A 
ATOM     22  C5  <0> d          24.608  71.212 -28.205  0.00  0.00     0.012 A 
ATOM     23  C4  <0> d          25.529  70.214 -27.964  0.00  0.00     0.035 A 
ATOM     24 Br1  <0> d          22.944  70.789 -28.997  0.00  0.00    -0.051 Br
ENDBRANCH   1  18
TORSDOF 3
ENDMDL
MODEL 6
REMARK VINA RESULT:      -7.5      2.859      7.013
REMARK  3 active torsions:
REMARK  status: ('A' for Active; 'I' for Inactive)
REMARK    1  A    between atoms: C3_3  and  C7_8 
REMARK    2  A    between atoms: C9_11  and  C10_12 
REMARK    3  A    between atoms: C14_16  and  N2_18 
ROOT
ATOM      1  C7  <0> d          30.782  69.571 -22.079  0.00  0.00     0.184 A 
ATOM      2  N1  <0> d          29.856  69.686 -22.990  0.00  0.00    -0.218 NA
ATOM      3  C8  <0> d          30.176  68.897 -24.055  0.00  0.00     0.136 A 
ATOM      4  C9  <0> d          29.462  68.738 -25.222  0.00  0.00     0.049 C 
ATOM      5  C16 <0> d          31.449  68.244 -23.690  0.00  0.00     0.318 A 
ATOM      6  O3  <0> d          32.090  67.452 -24.355  0.00  0.00    -0.257 OA
ATOM      7  O4  <0> d          31.748  68.714 -22.461  0.00  0.00    -0.254 OA
ENDROOT
BRANCH   4   8
ATOM      8  C10 <0> d          28.154  69.382 -25.373  0.00  0.00    -0.031 A 
ATOM      9  C15 <0> d          27.912  70.242 -26.453  0.00  0.00     0.049 A 
ATOM     10  C14 <0> d          26.680  70.844 -26.588  0.00  0.00     0.121 A 
ATOM     11  C13 <0> d          25.681  70.601 -25.659  0.00  0.00     0.044 A 
ATOM     12  C12 <0> d          25.912  69.753 -24.587  0.00  0.00     0.022 A 
ATOM     13 Br2  <0> d          23.994  71.433 -25.852  0.00  0.00    -0.048 Br
ATOM     14  C11 <0> d          27.136  69.139 -24.441  0.00  0.00     0.013 A 
BRANCH  10  15
ATOM     15  N2  <0> d          26.422  71.751 -27.728  0.00  0.00    -0.114 N 
ATOM     16  O1  <0> d          26.101  71.293 -28.810  0.00  0.00    -0.532 OA
ATOM     17  O2  <0> d          26.530  72.956 -27.583  0.00  0.00    -0.532 OA
ENDBRANCH  10  15
ENDBRANCH   4   8
BRANCH   1  18
ATOM     18  C3  <0> d          30.768  70.285 -20.787  0.00  0.00     0.018 A 
ATOM     19  C2  <0> d          30.747  71.681 -20.757  0.00  0.00     0.016 A 
ATOM     20  C1  <0> d          30.740  72.342 -19.545  0.00  0.00     0.002 A 
ATOM     21  C6  <0> d          30.749  71.626 -18.362  0.00  0.00     0.019 A 
ATOM     22  C5  <0> d          30.765  70.241 -18.384  0.00  0.00     0.012 A 
ATOM     23  C4  <0> d          30.772  69.567 -19.588  0.00  0.00     0.035 A 
ATOM     24 Br1  <0> d          30.778  69.272 -16.761  0.00  0.00    -0.051 Br
ENDBRANCH   1  18
TORSDOF 3
ENDMDL
MODEL 7
REMARK VINA RESULT:      -7.5      3.742      6.708
REMARK  3 active torsions:
REMARK  status: ('A' for Active; 'I' for Inactive)
REMARK    1  A    between atoms: C3_3  and  C7_8 
REMARK    2  A    between atoms: C9_11  and  C10_12 
REMARK    3  A    between atoms: C14_16  and  N2_18 
ROOT
ATOM      1  C7  <0> d          28.717  68.694 -25.803  0.00  0.00     0.184 A 
ATOM      2  N1  <0> d          27.649  69.227 -25.276  0.00  0.00    -0.218 NA
ATOM      3  C8  <0> d          26.711  69.404 -26.250  0.00  0.00     0.136 A 
ATOM      4  C9  <0> d          25.450  69.940 -26.109  0.00  0.00     0.049 C 
ATOM      5  C16 <0> d          27.332  68.895 -27.489  0.00  0.00     0.318 A 
ATOM      6  O3  <0> d          26.839  68.858 -28.601  0.00  0.00    -0.257 OA
ATOM      7  O4  <0> d          28.562  68.477 -27.123  0.00  0.00    -0.254 OA
ENDROOT
BRANCH   4   8
ATOM      8  C10 <0> d          24.951  70.296 -24.776  0.00  0.00    -0.031 A 
ATOM      9  C15 <0> d          24.841  71.642 -24.402  0.00  0.00     0.049 A 
ATOM     10  C14 <0> d          24.372  71.968 -23.148  0.00  0.00     0.121 A 
ATOM     11  C13 <0> d          24.010  70.970 -22.258  0.00  0.00     0.044 A 
ATOM     12  C12 <0> d          24.117  69.636 -22.620  0.00  0.00     0.022 A 
ATOM     13 Br2  <0> d          23.369  71.429 -20.539  0.00  0.00    -0.048 Br
ATOM     14  C11 <0> d          24.579  69.293 -23.871  0.00  0.00     0.013 A 
BRANCH  10  15
ATOM     15  N2  <0> d          24.253  73.389 -22.751  0.00  0.00    -0.114 N 
ATOM     16  O1  <0> d          23.212  73.990 -22.944  0.00  0.00    -0.532 OA
ATOM     17  O2  <0> d          25.197  73.956 -22.230  0.00  0.00    -0.532 OA
ENDBRANCH  10  15
ENDBRANCH   4   8
BRANCH   1  18
ATOM     18  C3  <0> d          29.939  68.363 -25.044  0.00  0.00     0.018 A 
ATOM     19  C2  <0> d          30.672  67.217 -25.360  0.00  0.00     0.016 A 
ATOM     20  C1  <0> d          31.811  66.910 -24.643  0.00  0.00     0.002 A 
ATOM     21  C6  <0> d          32.229  67.737 -23.617  0.00  0.00     0.019 A 
ATOM     22  C5  <0> d          31.510  68.878 -23.300  0.00  0.00     0.012 A 
ATOM     23  C4  <0> d          30.370  69.196 -24.009  0.00  0.00     0.035 A 
ATOM     24 Br1  <0> d          32.091  70.001 -21.895  0.00  0.00    -0.051 Br
ENDBRANCH   1  18
TORSDOF 3
ENDMDL
MODEL 8
REMARK VINA RESULT:      -7.4      2.465      7.308
REMARK  3 active torsions:
REMARK  status: ('A' for Active; 'I' for Inactive)
REMARK    1  A    between atoms: C3_3  and  C7_8 
REMARK    2  A    between atoms: C9_11  and  C10_12 
REMARK    3  A    between atoms: C14_16  and  N2_18 
ROOT
ATOM      1  C7  <0> d          31.176  70.038 -21.607  0.00  0.00     0.184 A 
ATOM      2  N1  <0> d          30.266  69.876 -22.527  0.00  0.00    -0.218 NA
ATOM      3  C8  <0> d          30.808  69.193 -23.576  0.00  0.00     0.136 A 
ATOM      4  C9  <0> d          30.181  68.824 -24.746  0.00  0.00     0.049 C 
ATOM      5  C16 <0> d          32.207  68.928 -23.190  0.00  0.00     0.318 A 
ATOM      6  O3  <0> d          33.053  68.337 -23.836  0.00  0.00    -0.257 OA
ATOM      7  O4  <0> d          32.348  69.480 -21.966  0.00  0.00    -0.254 OA
ENDROOT
BRANCH   4   8
ATOM      8  C10 <0> d          28.747  69.073 -24.918  0.00  0.00    -0.031 A 
ATOM      9  C15 <0> d          28.172  69.028 -26.196  0.00  0.00     0.049 A 
ATOM     10  C14 <0> d          26.823  69.264 -26.349  0.00  0.00     0.121 A 
ATOM     11  C13 <0> d          26.035  69.546 -25.245  0.00  0.00     0.044 A 
ATOM     12  C12 <0> d          26.595  69.594 -23.978  0.00  0.00     0.022 A 
ATOM     13 Br2  <0> d          24.185  69.870 -25.467  0.00  0.00    -0.048 Br
ATOM     14  C11 <0> d          27.941  69.355 -23.806  0.00  0.00     0.013 A 
BRANCH  10  15
ATOM     15  N2  <0> d          26.214  69.216 -27.697  0.00  0.00    -0.114 N 
ATOM     16  O1  <0> d          26.130  70.232 -28.364  0.00  0.00    -0.532 OA
ATOM     17  O2  <0> d          25.798  68.160 -28.140  0.00  0.00    -0.532 OA
ENDBRANCH  10  15
ENDBRANCH   4   8
BRANCH   1  18
ATOM     18  C3  <0> d          30.947  70.738 -20.328  0.00  0.00     0.018 A 
ATOM     19  C2  <0> d          30.618  70.014 -19.180  0.00  0.00     0.016 A 
ATOM     20  C1  <0> d          30.400  70.675 -17.989  0.00  0.00     0.002 A 
ATOM     21  C6  <0> d          30.510  72.052 -17.928  0.00  0.00     0.019 A 
ATOM     22  C5  <0> d          30.841  72.778 -19.061  0.00  0.00     0.012 A 
ATOM     23  C4  <0> d          31.062  72.129 -20.258  0.00  0.00     0.035 A 
ATOM     24 Br1  <0> d          30.989  74.660 -18.967  0.00  0.00    -0.051 Br
ENDBRANCH   1  18
TORSDOF 3
ENDMDL
MODEL 9
REMARK VINA RESULT:      -7.4      3.310      7.588
REMARK  3 active torsions:
REMARK  status: ('A' for Active; 'I' for Inactive)
REMARK    1  A    between atoms: C3_3  and  C7_8 
REMARK    2  A    between atoms: C9_11  and  C10_12 
REMARK    3  A    between atoms: C14_16  and  N2_18 
ROOT
ATOM      1  C7  <0> d          29.485  71.027 -19.711  0.00  0.00     0.184 A 
ATOM      2  N1  <0> d          28.775  70.547 -20.694  0.00  0.00    -0.218 NA
ATOM      3  C8  <0> d          28.104  69.441 -20.263  0.00  0.00     0.136 A 
ATOM      4  C9  <0> d          27.251  68.643 -20.993  0.00  0.00     0.049 C 
ATOM      5  C16 <0> d          28.480  69.283 -18.844  0.00  0.00     0.318 A 
ATOM      6  O3  <0> d          28.104  68.421 -18.072  0.00  0.00    -0.257 OA
ATOM      7  O4  <0> d          29.330  70.300 -18.588  0.00  0.00    -0.254 OA
ENDROOT
BRANCH   4   8
ATOM      8  C10 <0> d          26.901  69.012 -22.368  0.00  0.00    -0.031 A 
ATOM      9  C15 <0> d          27.854  68.903 -23.391  0.00  0.00     0.049 A 
ATOM     10  C14 <0> d          27.518  69.253 -24.681  0.00  0.00     0.121 A 
ATOM     11  C13 <0> d          26.242  69.711 -24.968  0.00  0.00     0.044 A 
ATOM     12  C12 <0> d          25.295  69.823 -23.963  0.00  0.00     0.022 A 
ATOM     13 Br2  <0> d          25.791  70.190 -26.741  0.00  0.00    -0.048 Br
ATOM     14  C11 <0> d          25.612  69.472 -22.669  0.00  0.00     0.013 A 
BRANCH  10  15
ATOM     15  N2  <0> d          28.521  69.138 -25.762  0.00  0.00    -0.114 N 
ATOM     16  O1  <0> d          29.178  70.110 -26.088  0.00  0.00    -0.532 OA
ATOM     17  O2  <0> d          28.691  68.071 -26.325  0.00  0.00    -0.532 OA
ENDBRANCH  10  15
ENDBRANCH   4   8
BRANCH   1  18
ATOM     18  C3  <0> d          30.344  72.223 -19.814  0.00  0.00     0.018 A 
ATOM     19  C2  <0> d          30.145  73.306 -18.956  0.00  0.00     0.016 A 
ATOM     20  C1  <0> d          30.948  74.424 -19.062  0.00  0.00     0.002 A 
ATOM     21  C6  <0> d          31.952  74.470 -20.012  0.00  0.00     0.019 A 
ATOM     22  C5  <0> d          32.159  73.397 -20.863  0.00  0.00     0.012 A 
ATOM     23  C4  <0> d          31.364  72.274 -20.768  0.00  0.00     0.035 A 
ATOM     24 Br1  <0> d          33.535  73.472 -22.158  0.00  0.00    -0.051 Br
ENDBRANCH   1  18
TORSDOF 3
ENDMDL
MODEL 10
REMARK VINA RESULT:      -7.4      3.265      7.226
REMARK  3 active torsions:
REMARK  status: ('A' for Active; 'I' for Inactive)
REMARK    1  A    between atoms: C3_3  and  C7_8 
REMARK    2  A    between atoms: C9_11  and  C10_12 
REMARK    3  A    between atoms: C14_16  and  N2_18 
ROOT
ATOM      1  C7  <0> d          29.839  68.600 -25.283  0.00  0.00     0.184 A 
ATOM      2  N1  <0> d          28.851  69.272 -25.806  0.00  0.00    -0.218 NA
ATOM      3  C8  <0> d          28.459  68.662 -26.962  0.00  0.00     0.136 A 
ATOM      4  C9  <0> d          27.452  69.057 -27.815  0.00  0.00     0.049 C 
ATOM      5  C16 <0> d          29.339  67.485 -27.102  0.00  0.00     0.318 A 
ATOM      6  O3  <0> d          29.330  66.658 -27.995  0.00  0.00    -0.257 OA
ATOM      7  O4  <0> d          30.156  67.523 -26.028  0.00  0.00    -0.254 OA
ENDROOT
BRANCH   4   8
ATOM      8  C10 <0> d          26.599  70.196 -27.462  0.00  0.00    -0.031 A 
ATOM      9  C15 <0> d          25.407  69.990 -26.755  0.00  0.00     0.049 A 
ATOM     10  C14 <0> d          24.610  71.065 -26.427  0.00  0.00     0.121 A 
ATOM     11  C13 <0> d          24.984  72.347 -26.796  0.00  0.00     0.044 A 
ATOM     12  C12 <0> d          26.161  72.560 -27.496  0.00  0.00     0.022 A 
ATOM     13 Br2  <0> d          23.883  73.816 -26.342  0.00  0.00    -0.048 Br
ATOM     14  C11 <0> d          26.972  71.497 -27.827  0.00  0.00     0.013 A 
BRANCH  10  15
ATOM     15  N2  <0> d          23.351  70.851 -25.680  0.00  0.00    -0.114 N 
ATOM     16  O1  <0> d          22.310  70.660 -26.283  0.00  0.00    -0.532 OA
ATOM     17  O2  <0> d          23.356  70.864 -24.461  0.00  0.00    -0.532 OA
ENDBRANCH  10  15
ENDBRANCH   4   8
BRANCH   1  18
ATOM     18  C3  <0> d          30.520  68.970 -24.026  0.00  0.00     0.018 A 
ATOM     19  C2  <0> d          31.904  68.822 -23.908  0.00  0.00     0.016 A 
ATOM     20  C1  <0> d          32.533  69.165 -22.729  0.00  0.00     0.002 A 
ATOM     21  C6  <0> d          31.798  69.659 -21.667  0.00  0.00     0.019 A 
ATOM     22  C5  <0> d          30.426  69.813 -21.778  0.00  0.00     0.012 A 
ATOM     23  C4  <0> d          29.784  69.475 -22.951  0.00  0.00     0.035 A 
ATOM     24 Br1  <0> d          29.431  70.489 -20.319  0.00  0.00    -0.051 Br
ENDBRANCH   1  18
TORSDOF 3
ENDMDL
