MODEL 1
REMARK VINA RESULT:      -5.9      0.000      0.000
REMARK  0 active torsions:
REMARK  status: ('A' for Active; 'I' for Inactive)
ROOT
ATOM      1  C1  <0> d          25.347  70.420 -28.534  0.00  0.00     0.048 C 
ATOM      2  C2  <0> d          26.338  70.166 -27.427  0.00  0.00    -0.060 A 
ATOM      3  C3  <0> d          26.291  70.946 -26.273  0.00  0.00     0.007 A 
ATOM      4  C4  <0> d          27.174  70.740 -25.256  0.00  0.00     0.014 A 
ATOM      5  C5  <0> d          28.142  69.732 -25.372  0.00  0.00    -0.007 A 
ATOM      6  C6  <0> d          29.081  69.492 -24.347  0.00  0.00     0.025 A 
ATOM      7  C7  <0> d          29.987  68.497 -24.528  0.00  0.00    -0.002 A 
ATOM      8  C8  <0> d          29.987  67.726 -25.699  0.00  0.00     0.171 A 
ATOM      9  N1  <0> d          29.106  67.968 -26.656  0.00  0.00    -0.224 NA
ATOM     10  C9  <0> d          28.190  68.934 -26.541  0.00  0.00     0.070 A 
ATOM     11  C10 <0> d          27.260  69.175 -27.568  0.00  0.00     0.039 A 
ATOM     12  O1  <0> d          30.960  66.776 -25.650  0.00  0.00    -0.334 OA
ATOM     13  C11 <0> d          31.940  67.145 -24.666  0.00  0.00     0.182 C 
ATOM     14  C12 <0> d          31.119  67.985 -23.659  0.00  0.00     0.070 C 
ENDROOT
TORSDOF 0
ENDMDL
MODEL 2
REMARK VINA RESULT:      -5.7      1.750      4.857
REMARK  0 active torsions:
REMARK  status: ('A' for Active; 'I' for Inactive)
ROOT
ATOM      1  C1  <0> d          32.360  68.475 -23.095  0.00  0.00     0.048 C 
ATOM      2  C2  <0> d          30.980  68.861 -23.563  0.00  0.00    -0.060 A 
ATOM      3  C3  <0> d          30.149  69.590 -22.716  0.00  0.00     0.007 A 
ATOM      4  C4  <0> d          28.896  69.953 -23.112  0.00  0.00     0.014 A 
ATOM      5  C5  <0> d          28.439  69.587 -24.387  0.00  0.00    -0.007 A 
ATOM      6  C6  <0> d          27.147  69.935 -24.832  0.00  0.00     0.025 A 
ATOM      7  C7  <0> d          26.773  69.549 -26.079  0.00  0.00    -0.002 A 
ATOM      8  C8  <0> d          27.650  68.830 -26.904  0.00  0.00     0.171 A 
ATOM      9  N1  <0> d          28.857  68.504 -26.470  0.00  0.00    -0.224 NA
ATOM     10  C9  <0> d          29.283  68.850 -25.252  0.00  0.00     0.070 A 
ATOM     11  C10 <0> d          30.570  68.497 -24.809  0.00  0.00     0.039 A 
ATOM     12  O1  <0> d          27.076  68.576 -28.112  0.00  0.00    -0.334 OA
ATOM     13  C11 <0> d          25.650  68.708 -28.000  0.00  0.00     0.182 C 
ATOM     14  C12 <0> d          25.486  69.738 -26.857  0.00  0.00     0.070 C 
ENDROOT
TORSDOF 0
ENDMDL
MODEL 3
REMARK VINA RESULT:      -5.5     14.978     15.480
REMARK  0 active torsions:
REMARK  status: ('A' for Active; 'I' for Inactive)
ROOT
ATOM      1  C1  <0> d          21.325  57.382 -35.263  0.00  0.00     0.048 C 
ATOM      2  C2  <0> d          22.118  56.796 -34.124  0.00  0.00    -0.060 A 
ATOM      3  C3  <0> d          23.324  56.151 -34.390  0.00  0.00     0.007 A 
ATOM      4  C4  <0> d          24.062  55.610 -33.381  0.00  0.00     0.014 A 
ATOM      5  C5  <0> d          23.604  55.703 -32.058  0.00  0.00    -0.007 A 
ATOM      6  C6  <0> d          24.332  55.150 -30.985  0.00  0.00     0.025 A 
ATOM      7  C7  <0> d          23.828  55.282 -29.732  0.00  0.00    -0.002 A 
ATOM      8  C8  <0> d          22.617  55.955 -29.509  0.00  0.00     0.171 A 
ATOM      9  N1  <0> d          21.941  56.462 -30.526  0.00  0.00    -0.224 NA
ATOM     10  C9  <0> d          22.381  56.363 -31.783  0.00  0.00     0.070 A 
ATOM     11  C10 <0> d          21.649  56.911 -32.852  0.00  0.00     0.039 A 
ATOM     12  O1  <0> d          22.322  55.988 -28.181  0.00  0.00    -0.334 OA
ATOM     13  C11 <0> d          23.067  54.964 -27.501  0.00  0.00     0.182 C 
ATOM     14  C12 <0> d          24.330  54.811 -28.381  0.00  0.00     0.070 C 
ENDROOT
TORSDOF 0
ENDMDL
MODEL 4
REMARK VINA RESULT:      -5.5      1.639      1.885
REMARK  0 active torsions:
REMARK  status: ('A' for Active; 'I' for Inactive)
ROOT
ATOM      1  C1  <0> d          25.638  69.226 -27.733  0.00  0.00     0.048 C 
ATOM      2  C2  <0> d          26.430  69.310 -26.453  0.00  0.00    -0.060 A 
ATOM      3  C3  <0> d          25.773  69.606 -25.261  0.00  0.00     0.007 A 
ATOM      4  C4  <0> d          26.462  69.690 -24.088  0.00  0.00     0.014 A 
ATOM      5  C5  <0> d          27.848  69.476 -24.082  0.00  0.00    -0.007 A 
ATOM      6  C6  <0> d          28.600  69.562 -22.892  0.00  0.00     0.025 A 
ATOM      7  C7  <0> d          29.938  69.341 -22.962  0.00  0.00    -0.002 A 
ATOM      8  C8  <0> d          30.555  69.029 -24.182  0.00  0.00     0.171 A 
ATOM      9  N1  <0> d          29.837  68.959 -25.292  0.00  0.00    -0.224 NA
ATOM     10  C9  <0> d          28.518  69.170 -25.291  0.00  0.00     0.070 A 
ATOM     11  C10 <0> d          27.772  69.090 -26.480  0.00  0.00     0.039 A 
ATOM     12  O1  <0> d          31.889  68.822 -24.009  0.00  0.00    -0.334 OA
ATOM     13  C11 <0> d          32.308  69.421 -22.772  0.00  0.00     0.182 C 
ATOM     14  C12 <0> d          31.027  69.362 -21.907  0.00  0.00     0.070 C 
ENDROOT
TORSDOF 0
ENDMDL
MODEL 5
REMARK VINA RESULT:      -5.4     22.082     23.368
REMARK  0 active torsions:
REMARK  status: ('A' for Active; 'I' for Inactive)
ROOT
ATOM      1  C1  <0> d          33.911  55.627  -6.598  0.00  0.00     0.048 C 
ATOM      2  C2  <0> d          32.538  56.226  -6.759  0.00  0.00    -0.060 A 
ATOM      3  C3  <0> d          32.410  57.523  -7.251  0.00  0.00     0.007 A 
ATOM      4  C4  <0> d          31.181  58.091  -7.407  0.00  0.00     0.014 A 
ATOM      5  C5  <0> d          30.032  57.362  -7.069  0.00  0.00    -0.007 A 
ATOM      6  C6  <0> d          28.742  57.915  -7.207  0.00  0.00     0.025 A 
ATOM      7  C7  <0> d          27.675  57.148  -6.862  0.00  0.00    -0.002 A 
ATOM      8  C8  <0> d          27.851  55.840  -6.387  0.00  0.00     0.171 A 
ATOM      9  N1  <0> d          29.067  55.337  -6.256  0.00  0.00    -0.224 NA
ATOM     10  C9  <0> d          30.158  56.041  -6.574  0.00  0.00     0.070 A 
ATOM     11  C10 <0> d          31.442  55.488  -6.429  0.00  0.00     0.039 A 
ATOM     12  O1  <0> d          26.649  55.256  -6.131  0.00  0.00    -0.334 OA
ATOM     13  C11 <0> d          25.644  56.272  -5.987  0.00  0.00     0.182 C 
ATOM     14  C12 <0> d          26.184  57.421  -6.872  0.00  0.00     0.070 C 
ENDROOT
TORSDOF 0
ENDMDL
MODEL 6
REMARK VINA RESULT:      -5.3      2.689      3.240
REMARK  0 active torsions:
REMARK  status: ('A' for Active; 'I' for Inactive)
ROOT
ATOM      1  C1  <0> d          26.299  69.348 -28.292  0.00  0.00     0.048 C 
ATOM      2  C2  <0> d          26.291  69.361 -26.785  0.00  0.00    -0.060 A 
ATOM      3  C3  <0> d          25.076  69.434 -26.107  0.00  0.00     0.007 A 
ATOM      4  C4  <0> d          25.037  69.448 -24.745  0.00  0.00     0.014 A 
ATOM      5  C5  <0> d          26.234  69.389 -24.017  0.00  0.00    -0.007 A 
ATOM      6  C6  <0> d          26.240  69.410 -22.607  0.00  0.00     0.025 A 
ATOM      7  C7  <0> d          27.437  69.347 -21.969  0.00  0.00    -0.002 A 
ATOM      8  C8  <0> d          28.635  69.257 -22.692  0.00  0.00     0.171 A 
ATOM      9  N1  <0> d          28.615  69.246 -24.016  0.00  0.00    -0.224 NA
ATOM     10  C9  <0> d          27.471  69.309 -24.702  0.00  0.00     0.070 A 
ATOM     11  C10 <0> d          27.470  69.294 -26.108  0.00  0.00     0.039 A 
ATOM     12  O1  <0> d          29.701  69.178 -21.850  0.00  0.00    -0.334 OA
ATOM     13  C11 <0> d          29.321  69.662 -20.552  0.00  0.00     0.182 C 
ATOM     14  C12 <0> d          27.806  69.357 -20.498  0.00  0.00     0.070 C 
ENDROOT
TORSDOF 0
ENDMDL
MODEL 7
REMARK VINA RESULT:      -5.3     15.304     16.241
REMARK  0 active torsions:
REMARK  status: ('A' for Active; 'I' for Inactive)
ROOT
ATOM      1  C1  <0> d          24.869  55.118 -35.823  0.00  0.00     0.048 C 
ATOM      2  C2  <0> d          24.820  54.765 -34.359  0.00  0.00    -0.060 A 
ATOM      3  C3  <0> d          25.488  53.630 -33.905  0.00  0.00     0.007 A 
ATOM      4  C4  <0> d          25.460  53.285 -32.587  0.00  0.00     0.014 A 
ATOM      5  C5  <0> d          24.750  54.082 -31.677  0.00  0.00    -0.007 A 
ATOM      6  C6  <0> d          24.689  53.756 -30.306  0.00  0.00     0.025 A 
ATOM      7  C7  <0> d          23.985  54.575 -29.483  0.00  0.00    -0.002 A 
ATOM      8  C8  <0> d          23.341  55.717 -29.981  0.00  0.00     0.171 A 
ATOM      9  N1  <0> d          23.401  56.006 -31.271  0.00  0.00    -0.224 NA
ATOM     10  C9  <0> d          24.074  55.239 -32.133  0.00  0.00     0.070 A 
ATOM     11  C10 <0> d          24.128  55.564 -33.500  0.00  0.00     0.039 A 
ATOM     12  O1  <0> d          22.724  56.399 -28.978  0.00  0.00    -0.334 OA
ATOM     13  C11 <0> d          22.537  55.525 -27.852  0.00  0.00     0.182 C 
ATOM     14  C12 <0> d          23.707  54.523 -27.994  0.00  0.00     0.070 C 
ENDROOT
TORSDOF 0
ENDMDL
MODEL 8
REMARK VINA RESULT:      -5.2     20.323     21.632
REMARK  0 active torsions:
REMARK  status: ('A' for Active; 'I' for Inactive)
ROOT
ATOM      1  C1  <0> d          32.497  89.539 -12.257  0.00  0.00     0.048 C 
ATOM      2  C2  <0> d          32.387  88.574 -13.410  0.00  0.00    -0.060 A 
ATOM      3  C3  <0> d          32.309  87.207 -13.153  0.00  0.00     0.007 A 
ATOM      4  C4  <0> d          32.210  86.310 -14.175  0.00  0.00     0.014 A 
ATOM      5  C5  <0> d          32.187  86.769 -15.500  0.00  0.00    -0.007 A 
ATOM      6  C6  <0> d          32.095  85.875 -16.587  0.00  0.00     0.025 A 
ATOM      7  C7  <0> d          32.075  86.392 -17.842  0.00  0.00    -0.002 A 
ATOM      8  C8  <0> d          32.140  87.777 -18.053  0.00  0.00     0.171 A 
ATOM      9  N1  <0> d          32.234  88.603 -17.024  0.00  0.00    -0.224 NA
ATOM     10  C9  <0> d          32.261  88.158 -15.765  0.00  0.00     0.070 A 
ATOM     11  C10 <0> d          32.360  89.052 -14.684  0.00  0.00     0.039 A 
ATOM     12  O1  <0> d          32.078  88.065 -19.382  0.00  0.00    -0.334 OA
ATOM     13  C11 <0> d          32.424  86.896 -20.141  0.00  0.00     0.182 C 
ATOM     14  C12 <0> d          31.996  85.738 -19.208  0.00  0.00     0.070 C 
ENDROOT
TORSDOF 0
ENDMDL
MODEL 9
REMARK VINA RESULT:      -5.2     24.353     25.458
REMARK  0 active torsions:
REMARK  status: ('A' for Active; 'I' for Inactive)
ROOT
ATOM      1  C1  <0> d           4.804  54.986 -26.664  0.00  0.00     0.048 C 
ATOM      2  C2  <0> d           6.230  54.559 -26.901  0.00  0.00    -0.060 A 
ATOM      3  C3  <0> d           6.966  55.164 -27.918  0.00  0.00     0.007 A 
ATOM      4  C4  <0> d           8.257  54.798 -28.156  0.00  0.00     0.014 A 
ATOM      5  C5  <0> d           8.852  53.802 -27.369  0.00  0.00    -0.007 A 
ATOM      6  C6  <0> d          10.182  53.387 -27.587  0.00  0.00     0.025 A 
ATOM      7  C7  <0> d          10.692  52.419 -26.784  0.00  0.00    -0.002 A 
ATOM      8  C8  <0> d           9.920  51.850 -25.761  0.00  0.00     0.171 A 
ATOM      9  N1  <0> d           8.671  52.243 -25.572  0.00  0.00    -0.224 NA
ATOM     10  C9  <0> d           8.109  53.188 -26.331  0.00  0.00     0.070 A 
ATOM     11  C10 <0> d           6.780  53.594 -26.114  0.00  0.00     0.039 A 
ATOM     12  O1  <0> d          10.642  50.925 -25.070  0.00  0.00    -0.334 OA
ATOM     13  C11 <0> d          11.762  50.503 -25.865  0.00  0.00     0.182 C 
ATOM     14  C12 <0> d          12.049  51.743 -26.745  0.00  0.00     0.070 C 
ENDROOT
TORSDOF 0
ENDMDL
MODEL 10
REMARK VINA RESULT:      -5.2     22.794     23.949
REMARK  0 active torsions:
REMARK  status: ('A' for Active; 'I' for Inactive)
ROOT
ATOM      1  C1  <0> d           9.305  57.696 -28.794  0.00  0.00     0.048 C 
ATOM      2  C2  <0> d          10.026  56.431 -28.406  0.00  0.00    -0.060 A 
ATOM      3  C3  <0> d          11.410  56.361 -28.550  0.00  0.00     0.007 A 
ATOM      4  C4  <0> d          12.090  55.230 -28.208  0.00  0.00     0.014 A 
ATOM      5  C5  <0> d          11.388  54.124 -27.707  0.00  0.00    -0.007 A 
ATOM      6  C6  <0> d          12.051  52.932 -27.350  0.00  0.00     0.025 A 
ATOM      7  C7  <0> d          11.306  51.903 -26.869  0.00  0.00    -0.002 A 
ATOM      8  C8  <0> d           9.916  52.024 -26.726  0.00  0.00     0.171 A 
ATOM      9  N1  <0> d           9.307  53.147 -27.072  0.00  0.00    -0.224 NA
ATOM     10  C9  <0> d           9.982  54.194 -27.555  0.00  0.00     0.070 A 
ATOM     11  C10 <0> d           9.316  55.379 -27.916  0.00  0.00     0.039 A 
ATOM     12  O1  <0> d           9.385  50.886 -26.203  0.00  0.00    -0.334 OA
ATOM     13  C11 <0> d          10.305  49.799 -26.392  0.00  0.00     0.182 C 
ATOM     14  C12 <0> d          11.680  50.507 -26.409  0.00  0.00     0.070 C 
ENDROOT
TORSDOF 0
ENDMDL
