MODEL 1
REMARK VINA RESULT:      -6.7      0.000      0.000
REMARK  2 active torsions:
REMARK  status: ('A' for Active; 'I' for Inactive)
REMARK    1  A    between atoms: N2_13  and  N3_14 
REMARK       I    between atoms: N3_14  and  C10_15 
REMARK    2  A    between atoms: C10_15  and  C11_17 
ROOT
ATOM      1  C1  <0> d          20.829  71.529 -22.981  0.00  0.00     0.049 C 
ATOM      2  C2  <0> d          21.789  70.737 -22.131  0.00  0.00    -0.044 A 
ATOM      3  C3  <0> d          23.080  70.520 -22.569  0.00  0.00     0.024 A 
ATOM      4  C4  <0> d          23.962  69.790 -21.781  0.00  0.00     0.027 A 
ATOM      5  C5  <0> d          23.548  69.274 -20.545  0.00  0.00     0.049 A 
ATOM      6  C6  <0> d          22.244  69.502 -20.120  0.00  0.00     0.050 A 
ATOM      7  C7  <0> d          21.377  70.235 -20.908  0.00  0.00     0.019 A 
ATOM      8 Br1  <0> d          19.608  70.546 -20.313  0.00  0.00    -0.051 Br
ATOM      9  N1  <0> d          24.606  68.589 -19.956  0.00  0.00    -0.321 N 
ATOM     10  C8  <0> d          25.703  68.619 -20.730  0.00  0.00     0.277 A 
ATOM     11  O1  <0> d          26.775  68.105 -20.472  0.00  0.00    -0.266 OA
ATOM     12  C9  <0> d          25.377  69.385 -21.950  0.00  0.00     0.157 A 
ATOM     13  N2  <0> d          26.167  69.648 -22.963  0.00  0.00    -0.166 NA
ATOM     14  H6  <0> d          24.556  68.145 -19.095  0.00  0.00     0.169 HD
ENDROOT
BRANCH  13  15
ATOM     15  N3  <0> d          27.489  69.184 -22.959  0.00  0.00    -0.242 N 
ATOM     16  C10 <0> d          28.169  69.077 -24.118  0.00  0.00     0.271 C 
ATOM     17  O2  <0> d          27.635  69.382 -25.166  0.00  0.00    -0.266 OA
ATOM     18  H7  <0> d          27.915  68.941 -22.122  0.00  0.00     0.192 HD
BRANCH  16  19
ATOM     19  C11 <0> d          29.562  68.587 -24.114  0.00  0.00     0.035 A 
ATOM     20  C16 <0> d          30.572  69.346 -23.520  0.00  0.00     0.035 A 
ATOM     21  C15 <0> d          31.870  68.880 -23.514  0.00  0.00     0.007 A 
ATOM     22  C14 <0> d          32.175  67.666 -24.106  0.00  0.00     0.018 A 
ATOM     23  I1  <0> d          33.385  70.014 -22.615  0.00  0.00    -0.045 I 
ATOM     24  C13 <0> d          31.180  66.911 -24.703  0.00  0.00     0.002 A 
ATOM     25  C12 <0> d          29.877  67.363 -24.709  0.00  0.00     0.017 A 
ENDBRANCH  16  19
ENDBRANCH  13  15
TORSDOF 2
ENDMDL
MODEL 2
REMARK VINA RESULT:      -6.5      6.126      9.001
REMARK  2 active torsions:
REMARK  status: ('A' for Active; 'I' for Inactive)
REMARK    1  A    between atoms: N2_13  and  N3_14 
REMARK       I    between atoms: N3_14  and  C10_15 
REMARK    2  A    between atoms: C10_15  and  C11_17 
ROOT
ATOM      1  C1  <0> d          28.657  69.883 -21.780  0.00  0.00     0.049 C 
ATOM      2  C2  <0> d          28.650  69.530 -23.245  0.00  0.00    -0.044 A 
ATOM      3  C3  <0> d          27.471  69.586 -23.962  0.00  0.00     0.024 A 
ATOM      4  C4  <0> d          27.469  69.260 -25.313  0.00  0.00     0.027 A 
ATOM      5  C5  <0> d          28.656  68.877 -25.952  0.00  0.00     0.049 A 
ATOM      6  C6  <0> d          29.834  68.826 -25.215  0.00  0.00     0.050 A 
ATOM      7  C7  <0> d          29.827  69.158 -23.873  0.00  0.00     0.019 A 
ATOM      8 Br1  <0> d          31.438  69.094 -22.884  0.00  0.00    -0.051 Br
ATOM      9  N1  <0> d          28.391  68.606 -27.290  0.00  0.00    -0.321 N 
ATOM     10  C8  <0> d          27.092  68.787 -27.581  0.00  0.00     0.277 A 
ATOM     11  O1  <0> d          26.572  68.624 -28.668  0.00  0.00    -0.266 OA
ATOM     12  C9  <0> d          26.406  69.217 -26.346  0.00  0.00     0.157 A 
ATOM     13  N2  <0> d          25.135  69.498 -26.194  0.00  0.00    -0.166 NA
ATOM     14  H6  <0> d          29.061  68.321 -27.932  0.00  0.00     0.169 HD
ENDROOT
BRANCH  13  15
ATOM     15  N3  <0> d          24.262  69.404 -27.285  0.00  0.00    -0.242 N 
ATOM     16  C10 <0> d          23.421  70.419 -27.566  0.00  0.00     0.271 C 
ATOM     17  O2  <0> d          23.419  71.416 -26.871  0.00  0.00    -0.266 OA
ATOM     18  H7  <0> d          24.264  68.608 -27.840  0.00  0.00     0.192 HD
BRANCH  16  19
ATOM     19  C11 <0> d          22.500  70.320 -28.717  0.00  0.00     0.035 A 
ATOM     20  C16 <0> d          21.639  69.227 -28.834  0.00  0.00     0.035 A 
ATOM     21  C15 <0> d          20.777  69.143 -29.908  0.00  0.00     0.007 A 
ATOM     22  C14 <0> d          20.773  70.134 -30.874  0.00  0.00     0.018 A 
ATOM     23  I1  <0> d          19.478  67.509 -30.081  0.00  0.00    -0.045 I 
ATOM     24  C13 <0> d          21.628  71.217 -30.767  0.00  0.00     0.002 A 
ATOM     25  C12 <0> d          22.490  71.316 -29.695  0.00  0.00     0.017 A 
ENDBRANCH  16  19
ENDBRANCH  13  15
TORSDOF 2
ENDMDL
MODEL 3
REMARK VINA RESULT:      -6.3     17.173     20.093
REMARK  2 active torsions:
REMARK  status: ('A' for Active; 'I' for Inactive)
REMARK    1  A    between atoms: N2_13  and  N3_14 
REMARK       I    between atoms: N3_14  and  C10_15 
REMARK    2  A    between atoms: C10_15  and  C11_17 
ROOT
ATOM      1  C1  <0> d          19.184  64.914  -5.120  0.00  0.00     0.049 C 
ATOM      2  C2  <0> d          18.801  64.777  -6.571  0.00  0.00    -0.044 A 
ATOM      3  C3  <0> d          17.492  64.984  -6.961  0.00  0.00     0.024 A 
ATOM      4  C4  <0> d          17.144  64.857  -8.301  0.00  0.00     0.027 A 
ATOM      5  C5  <0> d          18.111  64.520  -9.257  0.00  0.00     0.049 A 
ATOM      6  C6  <0> d          19.424  64.315  -8.846  0.00  0.00     0.050 A 
ATOM      7  C7  <0> d          19.762  64.451  -7.513  0.00  0.00     0.019 A 
ATOM      8 Br1  <0> d          21.553  64.178  -6.969  0.00  0.00    -0.051 Br
ATOM      9  N1  <0> d          17.515  64.456 -10.512  0.00  0.00    -0.321 N 
ATOM     10  C8  <0> d          16.201  64.731 -10.447  0.00  0.00     0.277 A 
ATOM     11  O1  <0> d          15.427  64.748 -11.384  0.00  0.00    -0.266 OA
ATOM     12  C9  <0> d          15.865  65.006  -9.035  0.00  0.00     0.157 A 
ATOM     13  N2  <0> d          14.692  65.315  -8.539  0.00  0.00    -0.166 NA
ATOM     14  H6  <0> d          17.989  64.239 -11.330  0.00  0.00     0.169 HD
ENDROOT
BRANCH  13  15
ATOM     15  N3  <0> d          13.579  65.415  -9.384  0.00  0.00    -0.242 N 
ATOM     16  C10 <0> d          12.368  65.006  -8.956  0.00  0.00     0.271 C 
ATOM     17  O2  <0> d          12.242  64.549  -7.838  0.00  0.00    -0.266 OA
ATOM     18  H7  <0> d          13.679  65.780 -10.278  0.00  0.00     0.192 HD
BRANCH  16  19
ATOM     19  C11 <0> d          11.194  65.112  -9.848  0.00  0.00     0.035 A 
ATOM     20  C16 <0> d          10.001  65.660  -9.375  0.00  0.00     0.035 A 
ATOM     21  C15 <0> d           8.911  65.761 -10.215  0.00  0.00     0.007 A 
ATOM     22  C14 <0> d           8.996  65.310 -11.521  0.00  0.00     0.018 A 
ATOM     23  I1  <0> d           7.121  66.591  -9.510  0.00  0.00    -0.045 I 
ATOM     24  C13 <0> d          10.174  64.760 -11.994  0.00  0.00     0.002 A 
ATOM     25  C12 <0> d          11.273  64.659 -11.167  0.00  0.00     0.017 A 
ENDBRANCH  16  19
ENDBRANCH  13  15
TORSDOF 2
ENDMDL
MODEL 4
REMARK VINA RESULT:      -6.3     18.523     20.928
REMARK  2 active torsions:
REMARK  status: ('A' for Active; 'I' for Inactive)
REMARK    1  A    between atoms: N2_13  and  N3_14 
REMARK       I    between atoms: N3_14  and  C10_15 
REMARK    2  A    between atoms: C10_15  and  C11_17 
ROOT
ATOM      1  C1  <0> d          27.258  54.298 -41.046  0.00  0.00     0.049 C 
ATOM      2  C2  <0> d          27.513  53.926 -39.608  0.00  0.00    -0.044 A 
ATOM      3  C3  <0> d          26.564  54.204 -38.645  0.00  0.00     0.024 A 
ATOM      4  C4  <0> d          26.804  53.858 -37.320  0.00  0.00     0.027 A 
ATOM      5  C5  <0> d          28.002  53.229 -36.957  0.00  0.00     0.049 A 
ATOM      6  C6  <0> d          28.947  52.958 -37.940  0.00  0.00     0.050 A 
ATOM      7  C7  <0> d          28.697  53.299 -39.256  0.00  0.00     0.019 A 
ATOM      8 Br1  <0> d          29.987  52.915 -40.585  0.00  0.00    -0.051 Br
ATOM      9  N1  <0> d          27.999  52.990 -35.587  0.00  0.00    -0.321 N 
ATOM     10  C8  <0> d          26.864  53.424 -35.015  0.00  0.00     0.277 A 
ATOM     11  O1  <0> d          26.584  53.349 -33.833  0.00  0.00    -0.266 OA
ATOM     12  C9  <0> d          26.017  54.010 -36.073  0.00  0.00     0.157 A 
ATOM     13  N2  <0> d          24.829  54.547 -35.940  0.00  0.00    -0.166 NA
ATOM     14  H6  <0> d          28.726  52.563 -35.106  0.00  0.00     0.169 HD
ENDROOT
BRANCH  13  15
ATOM     15  N3  <0> d          24.226  54.609 -34.677  0.00  0.00    -0.242 N 
ATOM     16  C10 <0> d          24.101  55.794 -34.047  0.00  0.00     0.271 C 
ATOM     17  O2  <0> d          24.513  56.809 -34.574  0.00  0.00    -0.266 OA
ATOM     18  H7  <0> d          23.897  53.799 -34.256  0.00  0.00     0.192 HD
BRANCH  16  19
ATOM     19  C11 <0> d          23.466  55.859 -32.715  0.00  0.00     0.035 A 
ATOM     20  C16 <0> d          24.113  55.319 -31.602  0.00  0.00     0.035 A 
ATOM     21  C15 <0> d          23.518  55.389 -30.359  0.00  0.00     0.007 A 
ATOM     22  C14 <0> d          22.275  55.983 -30.217  0.00  0.00     0.018 A 
ATOM     23  I1  <0> d          24.490  54.588 -28.686  0.00  0.00    -0.045 I 
ATOM     24  C13 <0> d          21.625  56.514 -31.317  0.00  0.00     0.002 A 
ATOM     25  C12 <0> d          22.213  56.457 -32.564  0.00  0.00     0.017 A 
ENDBRANCH  16  19
ENDBRANCH  13  15
TORSDOF 2
ENDMDL
MODEL 5
REMARK VINA RESULT:      -6.3     28.712     30.657
REMARK  2 active torsions:
REMARK  status: ('A' for Active; 'I' for Inactive)
REMARK    1  A    between atoms: N2_13  and  N3_14 
REMARK       I    between atoms: N3_14  and  C10_15 
REMARK    2  A    between atoms: C10_15  and  C11_17 
ROOT
ATOM      1  C1  <0> d          26.552  46.059  -2.118  0.00  0.00     0.049 C 
ATOM      2  C2  <0> d          25.473  46.629  -3.003  0.00  0.00    -0.044 A 
ATOM      3  C3  <0> d          24.471  45.810  -3.484  0.00  0.00     0.024 A 
ATOM      4  C4  <0> d          23.479  46.341  -4.299  0.00  0.00     0.027 A 
ATOM      5  C5  <0> d          23.489  47.701  -4.635  0.00  0.00     0.049 A 
ATOM      6  C6  <0> d          24.506  48.511  -4.143  0.00  0.00     0.050 A 
ATOM      7  C7  <0> d          25.485  47.975  -3.327  0.00  0.00     0.019 A 
ATOM      8 Br1  <0> d          26.857  49.090  -2.655  0.00  0.00    -0.051 Br
ATOM      9  N1  <0> d          22.399  47.981  -5.453  0.00  0.00    -0.321 N 
ATOM     10  C8  <0> d          21.662  46.882  -5.683  0.00  0.00     0.277 A 
ATOM     11  O1  <0> d          20.654  46.825  -6.361  0.00  0.00    -0.266 OA
ATOM     12  C9  <0> d          22.292  45.754  -4.966  0.00  0.00     0.157 A 
ATOM     13  N2  <0> d          21.891  44.507  -4.929  0.00  0.00    -0.166 NA
ATOM     14  H6  <0> d          22.199  48.859  -5.813  0.00  0.00     0.169 HD
ENDROOT
BRANCH  13  15
ATOM     15  N3  <0> d          20.737  44.121  -5.623  0.00  0.00    -0.242 N 
ATOM     16  C10 <0> d          20.843  43.507  -6.818  0.00  0.00     0.271 C 
ATOM     17  O2  <0> d          21.939  43.289  -7.294  0.00  0.00    -0.266 OA
ATOM     18  H7  <0> d          19.861  44.296  -5.243  0.00  0.00     0.192 HD
BRANCH  16  19
ATOM     19  C11 <0> d          19.626  43.101  -7.551  0.00  0.00     0.035 A 
ATOM     20  C16 <0> d          18.685  42.268  -6.942  0.00  0.00     0.035 A 
ATOM     21  C15 <0> d          17.548  41.898  -7.629  0.00  0.00     0.007 A 
ATOM     22  C14 <0> d          17.344  42.342  -8.925  0.00  0.00     0.018 A 
ATOM     23  I1  <0> d          16.131  40.656  -6.715  0.00  0.00    -0.045 I 
ATOM     24  C13 <0> d          18.275  43.163  -9.536  0.00  0.00     0.002 A 
ATOM     25  C12 <0> d          19.413  43.545  -8.858  0.00  0.00     0.017 A 
ENDBRANCH  16  19
ENDBRANCH  13  15
TORSDOF 2
ENDMDL
MODEL 6
REMARK VINA RESULT:      -6.3     21.717     23.427
REMARK  2 active torsions:
REMARK  status: ('A' for Active; 'I' for Inactive)
REMARK    1  A    between atoms: N2_13  and  N3_14 
REMARK       I    between atoms: N3_14  and  C10_15 
REMARK    2  A    between atoms: C10_15  and  C11_17 
ROOT
ATOM      1  C1  <0> d          13.007  51.073 -26.762  0.00  0.00     0.049 C 
ATOM      2  C2  <0> d          11.605  51.626 -26.769  0.00  0.00    -0.044 A 
ATOM      3  C3  <0> d          11.356  52.868 -27.318  0.00  0.00     0.024 A 
ATOM      4  C4  <0> d          10.061  53.373 -27.322  0.00  0.00     0.027 A 
ATOM      5  C5  <0> d           9.008  52.630 -26.772  0.00  0.00     0.049 A 
ATOM      6  C6  <0> d           9.277  51.382 -26.222  0.00  0.00     0.050 A 
ATOM      7  C7  <0> d          10.566  50.885 -26.229  0.00  0.00     0.019 A 
ATOM      8 Br1  <0> d          10.917  49.181 -25.487  0.00  0.00    -0.051 Br
ATOM      9  N1  <0> d           7.824  53.348 -26.899  0.00  0.00    -0.321 N 
ATOM     10  C8  <0> d           8.027  54.531 -27.502  0.00  0.00     0.277 A 
ATOM     11  O1  <0> d           7.177  55.366 -27.746  0.00  0.00    -0.266 OA
ATOM     12  C9  <0> d           9.466  54.637 -27.818  0.00  0.00     0.157 A 
ATOM     13  N2  <0> d          10.084  55.632 -28.407  0.00  0.00    -0.166 NA
ATOM     14  H6  <0> d           6.959  53.034 -26.589  0.00  0.00     0.169 HD
ENDROOT
BRANCH  13  15
ATOM     15  N3  <0> d           9.361  56.761 -28.815  0.00  0.00    -0.242 N 
ATOM     16  C10 <0> d           9.912  57.987 -28.713  0.00  0.00     0.271 C 
ATOM     17  O2  <0> d          11.034  58.113 -28.265  0.00  0.00    -0.266 OA
ATOM     18  H7  <0> d           8.465  56.660 -29.172  0.00  0.00     0.192 HD
BRANCH  16  19
ATOM     19  C11 <0> d           9.150  59.177 -29.143  0.00  0.00     0.035 A 
ATOM     20  C16 <0> d           8.264  59.799 -28.262  0.00  0.00     0.035 A 
ATOM     21  C15 <0> d           7.560  60.914 -28.667  0.00  0.00     0.007 A 
ATOM     22  C14 <0> d           7.723  61.410 -29.950  0.00  0.00     0.018 A 
ATOM     23  I1  <0> d           6.236  61.854 -27.344  0.00  0.00    -0.045 I 
ATOM     24  C13 <0> d           8.595  60.795 -30.830  0.00  0.00     0.002 A 
ATOM     25  C12 <0> d           9.310  59.683 -30.435  0.00  0.00     0.017 A 
ENDBRANCH  16  19
ENDBRANCH  13  15
TORSDOF 2
ENDMDL
MODEL 7
REMARK VINA RESULT:      -6.2     21.075     21.689
REMARK  2 active torsions:
REMARK  status: ('A' for Active; 'I' for Inactive)
REMARK    1  A    between atoms: N2_13  and  N3_14 
REMARK       I    between atoms: N3_14  and  C10_15 
REMARK    2  A    between atoms: C10_15  and  C11_17 
ROOT
ATOM      1  C1  <0> d          32.826  86.077  -7.861  0.00  0.00     0.049 C 
ATOM      2  C2  <0> d          32.814  87.082  -8.985  0.00  0.00    -0.044 A 
ATOM      3  C3  <0> d          32.368  86.710 -10.238  0.00  0.00     0.024 A 
ATOM      4  C4  <0> d          32.358  87.641 -11.270  0.00  0.00     0.027 A 
ATOM      5  C5  <0> d          32.800  88.951 -11.048  0.00  0.00     0.049 A 
ATOM      6  C6  <0> d          33.247  89.308  -9.781  0.00  0.00     0.050 A 
ATOM      7  C7  <0> d          33.246  88.378  -8.759  0.00  0.00     0.019 A 
ATOM      8 Br1  <0> d          33.848  88.879  -7.037  0.00  0.00    -0.051 Br
ATOM      9  N1  <0> d          32.691  89.679 -12.228  0.00  0.00    -0.321 N 
ATOM     10  C8  <0> d          32.202  88.926 -13.228  0.00  0.00     0.277 A 
ATOM     11  O1  <0> d          32.001  89.294 -14.369  0.00  0.00    -0.266 OA
ATOM     12  C9  <0> d          31.953  87.572 -12.694  0.00  0.00     0.157 A 
ATOM     13  N2  <0> d          31.479  86.534 -13.339  0.00  0.00    -0.166 NA
ATOM     14  H6  <0> d          32.939  90.613 -12.318  0.00  0.00     0.169 HD
ENDROOT
BRANCH  13  15
ATOM     15  N3  <0> d          31.144  86.645 -14.695  0.00  0.00    -0.242 N 
ATOM     16  C10 <0> d          31.982  86.171 -15.638  0.00  0.00     0.271 C 
ATOM     17  O2  <0> d          33.029  85.648 -15.312  0.00  0.00    -0.266 OA
ATOM     18  H7  <0> d          30.308  87.063 -14.956  0.00  0.00     0.192 HD
BRANCH  16  19
ATOM     19  C11 <0> d          31.630  86.289 -17.068  0.00  0.00     0.035 A 
ATOM     20  C16 <0> d          30.290  86.349 -17.457  0.00  0.00     0.035 A 
ATOM     21  C15 <0> d          29.967  86.466 -18.794  0.00  0.00     0.007 A 
ATOM     22  C14 <0> d          30.969  86.512 -19.749  0.00  0.00     0.018 A 
ATOM     23  I1  <0> d          27.959  86.564 -19.380  0.00  0.00    -0.045 I 
ATOM     24  C13 <0> d          32.299  86.448 -19.369  0.00  0.00     0.002 A 
ATOM     25  C12 <0> d          32.634  86.338 -18.036  0.00  0.00     0.017 A 
ENDBRANCH  16  19
ENDBRANCH  13  15
TORSDOF 2
ENDMDL
MODEL 8
REMARK VINA RESULT:      -6.2     21.184     21.831
REMARK  2 active torsions:
REMARK  status: ('A' for Active; 'I' for Inactive)
REMARK    1  A    between atoms: N2_13  and  N3_14 
REMARK       I    between atoms: N3_14  and  C10_15 
REMARK    2  A    between atoms: C10_15  and  C11_17 
ROOT
ATOM      1  C1  <0> d          31.728  89.861 -11.525  0.00  0.00     0.049 C 
ATOM      2  C2  <0> d          31.984  88.828 -12.592  0.00  0.00    -0.044 A 
ATOM      3  C3  <0> d          32.163  89.221 -13.904  0.00  0.00     0.024 A 
ATOM      4  C4  <0> d          32.399  88.263 -14.884  0.00  0.00     0.027 A 
ATOM      5  C5  <0> d          32.456  86.904 -14.549  0.00  0.00     0.049 A 
ATOM      6  C6  <0> d          32.273  86.527 -13.223  0.00  0.00     0.050 A 
ATOM      7  C7  <0> d          32.046  87.486 -12.255  0.00  0.00     0.019 A 
ATOM      8 Br1  <0> d          31.808  86.960 -10.453  0.00  0.00    -0.051 Br
ATOM      9  N1  <0> d          32.702  86.158 -15.696  0.00  0.00    -0.321 N 
ATOM     10  C8  <0> d          32.812  86.944 -16.780  0.00  0.00     0.277 A 
ATOM     11  O1  <0> d          33.025  86.570 -17.918  0.00  0.00    -0.266 OA
ATOM     12  C9  <0> d          32.627  88.344 -16.346  0.00  0.00     0.157 A 
ATOM     13  N2  <0> d          32.657  89.422 -17.091  0.00  0.00    -0.166 NA
ATOM     14  H6  <0> d          32.784  85.191 -15.711  0.00  0.00     0.169 HD
ENDROOT
BRANCH  13  15
ATOM     15  N3  <0> d          32.888  89.315 -18.469  0.00  0.00    -0.242 N 
ATOM     16  C10 <0> d          32.489  90.300 -19.297  0.00  0.00     0.271 C 
ATOM     17  O2  <0> d          31.928  91.281 -18.850  0.00  0.00    -0.266 OA
ATOM     18  H7  <0> d          33.335  88.532 -18.826  0.00  0.00     0.192 HD
BRANCH  16  19
ATOM     19  C11 <0> d          32.731  90.187 -20.750  0.00  0.00     0.035 A 
ATOM     20  C16 <0> d          31.905  90.858 -21.654  0.00  0.00     0.035 A 
ATOM     21  C15 <0> d          32.141  90.753 -23.009  0.00  0.00     0.007 A 
ATOM     22  C14 <0> d          33.188  89.975 -23.474  0.00  0.00     0.018 A 
ATOM     23  I1  <0> d          30.908  91.765 -24.367  0.00  0.00    -0.045 I 
ATOM     24  C13 <0> d          34.007  89.303 -22.584  0.00  0.00     0.002 A 
ATOM     25  C12 <0> d          33.786  89.405 -21.226  0.00  0.00     0.017 A 
ENDBRANCH  16  19
ENDBRANCH  13  15
TORSDOF 2
ENDMDL
MODEL 9
REMARK VINA RESULT:      -6.2     22.408     23.246
REMARK  2 active torsions:
REMARK  status: ('A' for Active; 'I' for Inactive)
REMARK    1  A    between atoms: N2_13  and  N3_14 
REMARK       I    between atoms: N3_14  and  C10_15 
REMARK    2  A    between atoms: C10_15  and  C11_17 
ROOT
ATOM      1  C1  <0> d          32.934  90.702 -18.749  0.00  0.00     0.049 C 
ATOM      2  C2  <0> d          32.663  89.473 -17.920  0.00  0.00    -0.044 A 
ATOM      3  C3  <0> d          32.750  89.537 -16.543  0.00  0.00     0.024 A 
ATOM      4  C4  <0> d          32.499  88.400 -15.783  0.00  0.00     0.027 A 
ATOM      5  C5  <0> d          32.159  87.192 -16.405  0.00  0.00     0.049 A 
ATOM      6  C6  <0> d          32.076  87.145 -17.792  0.00  0.00     0.050 A 
ATOM      7  C7  <0> d          32.321  88.282 -18.539  0.00  0.00     0.019 A 
ATOM      8 Br1  <0> d          32.197  88.208 -20.425  0.00  0.00    -0.051 Br
ATOM      9  N1  <0> d          31.959  86.216 -15.435  0.00  0.00    -0.321 N 
ATOM     10  C8  <0> d          32.148  86.706 -14.198  0.00  0.00     0.277 A 
ATOM     11  O1  <0> d          32.043  86.084 -13.158  0.00  0.00    -0.266 OA
ATOM     12  C9  <0> d          32.506  88.133 -14.325  0.00  0.00     0.157 A 
ATOM     13  N2  <0> d          32.772  88.979 -13.361  0.00  0.00    -0.166 NA
ATOM     14  H6  <0> d          31.715  85.297 -15.627  0.00  0.00     0.169 HD
ENDROOT
BRANCH  13  15
ATOM     15  N3  <0> d          32.732  88.555 -12.026  0.00  0.00    -0.242 N 
ATOM     16  C10 <0> d          33.165  89.371 -11.045  0.00  0.00     0.271 C 
ATOM     17  O2  <0> d          33.592  90.475 -11.318  0.00  0.00    -0.266 OA
ATOM     18  H7  <0> d          32.392  87.673 -11.808  0.00  0.00     0.192 HD
BRANCH  16  19
ATOM     19  C11 <0> d          33.123  88.923  -9.638  0.00  0.00     0.035 A 
ATOM     20  C16 <0> d          32.712  89.801  -8.634  0.00  0.00     0.035 A 
ATOM     21  C15 <0> d          32.669  89.374  -7.322  0.00  0.00     0.007 A 
ATOM     22  C14 <0> d          33.044  88.081  -7.000  0.00  0.00     0.018 A 
ATOM     23  I1  <0> d          32.044  90.687  -5.815  0.00  0.00    -0.045 I 
ATOM     24  C13 <0> d          33.458  87.207  -7.990  0.00  0.00     0.002 A 
ATOM     25  C12 <0> d          33.499  87.620  -9.306  0.00  0.00     0.017 A 
ENDBRANCH  16  19
ENDBRANCH  13  15
TORSDOF 2
ENDMDL
MODEL 10
REMARK VINA RESULT:      -6.2     24.362     25.486
REMARK  2 active torsions:
REMARK  status: ('A' for Active; 'I' for Inactive)
REMARK    1  A    between atoms: N2_13  and  N3_14 
REMARK       I    between atoms: N3_14  and  C10_15 
REMARK    2  A    between atoms: C10_15  and  C11_17 
ROOT
ATOM      1  C1  <0> d          50.859  67.870 -32.584  0.00  0.00     0.049 C 
ATOM      2  C2  <0> d          49.656  68.520 -33.218  0.00  0.00    -0.044 A 
ATOM      3  C3  <0> d          49.544  69.896 -33.234  0.00  0.00     0.024 A 
ATOM      4  C4  <0> d          48.432  70.490 -33.820  0.00  0.00     0.027 A 
ATOM      5  C5  <0> d          47.426  69.702 -34.394  0.00  0.00     0.049 A 
ATOM      6  C6  <0> d          47.555  68.318 -34.368  0.00  0.00     0.050 A 
ATOM      7  C7  <0> d          48.667  67.736 -33.789  0.00  0.00     0.019 A 
ATOM      8 Br1  <0> d          48.835  65.852 -33.769  0.00  0.00    -0.051 Br
ATOM      9  N1  <0> d          46.433  70.527 -34.909  0.00  0.00    -0.321 N 
ATOM     10  C8  <0> d          46.719  71.825 -34.710  0.00  0.00     0.277 A 
ATOM     11  O1  <0> d          46.034  72.770 -35.052  0.00  0.00    -0.266 OA
ATOM     12  C9  <0> d          48.013  71.900 -34.002  0.00  0.00     0.157 A 
ATOM     13  N2  <0> d          48.652  72.978 -33.617  0.00  0.00    -0.166 NA
ATOM     14  H6  <0> d          45.633  70.206 -35.355  0.00  0.00     0.169 HD
ENDROOT
BRANCH  13  15
ATOM     15  N3  <0> d          48.108  74.243 -33.873  0.00  0.00    -0.242 N 
ATOM     16  C10 <0> d          48.045  75.162 -32.889  0.00  0.00     0.271 C 
ATOM     17  O2  <0> d          48.460  74.892 -31.779  0.00  0.00    -0.266 OA
ATOM     18  H7  <0> d          47.776  74.459 -34.759  0.00  0.00     0.192 HD
BRANCH  16  19
ATOM     19  C11 <0> d          47.470  76.496 -33.159  0.00  0.00     0.035 A 
ATOM     20  C16 <0> d          46.694  76.708 -34.299  0.00  0.00     0.035 A 
ATOM     21  C15 <0> d          46.154  77.955 -34.542  0.00  0.00     0.007 A 
ATOM     22  C14 <0> d          46.392  78.997 -33.663  0.00  0.00     0.018 A 
ATOM     23  I1  <0> d          44.981  78.273 -36.248  0.00  0.00    -0.045 I 
ATOM     24  C13 <0> d          47.166  78.795 -32.533  0.00  0.00     0.002 A 
ATOM     25  C12 <0> d          47.705  77.552 -32.276  0.00  0.00     0.017 A 
ENDBRANCH  16  19
ENDBRANCH  13  15
TORSDOF 2
ENDMDL
