MODEL 1
REMARK VINA RESULT:      -6.6      0.000      0.000
REMARK  5 active torsions:
REMARK  status: ('A' for Active; 'I' for Inactive)
REMARK    1  A    between atoms: O1_2  and  C2_3 
REMARK    2  A    between atoms: C5_6  and  S1_11 
REMARK    3  A    between atoms: C7_8  and  O2_9 
REMARK    4  A    between atoms: S1_11  and  N1_14 
REMARK    5  A    between atoms: N1_14  and  C9_15 
ROOT
ATOM      1  S1  <0> d          27.241  69.262 -27.643  0.00  0.00     0.263 S 
ATOM      2  O3  <0> d          26.781  68.170 -28.429  0.00  0.00    -0.200 OA
ATOM      3  O4  <0> d          27.872  70.399 -28.216  0.00  0.00    -0.200 OA
ENDROOT
BRANCH   1   4
ATOM      4  C5  <0> d          28.374  68.596 -26.470  0.00  0.00     0.082 A 
ATOM      5  C4  <0> d          29.305  67.655 -26.867  0.00  0.00     0.028 A 
ATOM      6  C3  <0> d          30.200  67.132 -25.952  0.00  0.00     0.041 A 
ATOM      7  C2  <0> d          30.157  67.545 -24.629  0.00  0.00     0.101 A 
ATOM      8  C7  <0> d          29.216  68.488 -24.228  0.00  0.00     0.102 A 
ATOM      9  C6  <0> d          28.326  69.011 -25.151  0.00  0.00     0.065 A 
BRANCH   7  10
ATOM     10  O1  <0> d          31.033  67.028 -23.726  0.00  0.00    -0.353 OA
ATOM     11  C1  <0> d          32.330  67.624 -23.667  0.00  0.00     0.210 C 
ENDBRANCH   7  10
BRANCH   8  12
ATOM     12  O2  <0> d          29.171  68.896 -22.931  0.00  0.00    -0.353 OA
ATOM     13  C8  <0> d          29.641  70.216 -22.649  0.00  0.00     0.210 C 
ENDBRANCH   8  12
ENDBRANCH   1   4
BRANCH   1  14
ATOM     14  N1  <0> d          25.932  69.822 -26.797  0.00  0.00    -0.281 N 
ATOM     15  H10 <0> d          26.049  70.175 -25.901  0.00  0.00     0.179 HD
BRANCH  14  16
ATOM     16  C9  <0> d          24.660  69.781 -27.372  0.00  0.00     0.042 A 
ATOM     17  C14 <0> d          24.292  70.731 -28.315  0.00  0.00     0.031 A 
ATOM     18  C13 <0> d          23.033  70.688 -28.882  0.00  0.00     0.020 A 
ATOM     19  C12 <0> d          22.139  69.700 -28.511  0.00  0.00     0.006 A 
ATOM     20  C11 <0> d          22.503  68.751 -27.571  0.00  0.00     0.020 A 
ATOM     21  I1  <0> d          20.231  69.638 -29.373  0.00  0.00    -0.045 I 
ATOM     22  C10 <0> d          23.763  68.785 -27.006  0.00  0.00     0.031 A 
ENDBRANCH  14  16
ENDBRANCH   1  14
TORSDOF 5
ENDMDL
MODEL 2
REMARK VINA RESULT:      -6.3      5.199      6.821
REMARK  5 active torsions:
REMARK  status: ('A' for Active; 'I' for Inactive)
REMARK    1  A    between atoms: O1_2  and  C2_3 
REMARK    2  A    between atoms: C5_6  and  S1_11 
REMARK    3  A    between atoms: C7_8  and  O2_9 
REMARK    4  A    between atoms: S1_11  and  N1_14 
REMARK    5  A    between atoms: N1_14  and  C9_15 
ROOT
ATOM      1  S1  <0> d          29.548  70.129 -19.665  0.00  0.00     0.263 S 
ATOM      2  O3  <0> d          28.498  71.082 -19.575  0.00  0.00    -0.200 OA
ATOM      3  O4  <0> d          30.168  69.569 -18.515  0.00  0.00    -0.200 OA
ENDROOT
BRANCH   1   4
ATOM      4  C5  <0> d          30.830  70.879 -20.613  0.00  0.00     0.082 A 
ATOM      5  C4  <0> d          30.968  72.254 -20.620  0.00  0.00     0.028 A 
ATOM      6  C3  <0> d          31.976  72.847 -21.358  0.00  0.00     0.041 A 
ATOM      7  C2  <0> d          32.843  72.062 -22.101  0.00  0.00     0.101 A 
ATOM      8  C7  <0> d          32.701  70.679 -22.098  0.00  0.00     0.102 A 
ATOM      9  C6  <0> d          31.692  70.090 -21.353  0.00  0.00     0.065 A 
BRANCH   7  10
ATOM     10  O1  <0> d          33.832  72.645 -22.832  0.00  0.00    -0.353 OA
ATOM     11  C1  <0> d          33.953  74.065 -22.743  0.00  0.00     0.210 C 
ENDBRANCH   7  10
BRANCH   8  12
ATOM     12  O2  <0> d          33.550  69.905 -22.826  0.00  0.00    -0.353 OA
ATOM     13  C8  <0> d          32.971  69.090 -23.848  0.00  0.00     0.210 C 
ENDBRANCH   8  12
ENDBRANCH   1   4
BRANCH   1  14
ATOM     14  N1  <0> d          28.962  68.859 -20.552  0.00  0.00    -0.281 N 
ATOM     15  H10 <0> d          29.287  67.961 -20.386  0.00  0.00     0.179 HD
BRANCH  14  16
ATOM     16  C9  <0> d          28.003  69.084 -21.542  0.00  0.00     0.042 A 
ATOM     17  C14 <0> d          28.399  69.390 -22.837  0.00  0.00     0.031 A 
ATOM     18  C13 <0> d          27.449  69.613 -23.815  0.00  0.00     0.020 A 
ATOM     19  C12 <0> d          26.104  69.529 -23.506  0.00  0.00     0.006 A 
ATOM     20  C11 <0> d          25.705  69.224 -22.216  0.00  0.00     0.020 A 
ATOM     21  I1  <0> d          24.666  69.867 -24.991  0.00  0.00    -0.045 I 
ATOM     22  C10 <0> d          26.650  68.995 -21.236  0.00  0.00     0.031 A 
ENDBRANCH  14  16
ENDBRANCH   1  14
TORSDOF 5
ENDMDL
MODEL 3
REMARK VINA RESULT:      -6.2      2.119      2.347
REMARK  5 active torsions:
REMARK  status: ('A' for Active; 'I' for Inactive)
REMARK    1  A    between atoms: O1_2  and  C2_3 
REMARK    2  A    between atoms: C5_6  and  S1_11 
REMARK    3  A    between atoms: C7_8  and  O2_9 
REMARK    4  A    between atoms: S1_11  and  N1_14 
REMARK    5  A    between atoms: N1_14  and  C9_15 
ROOT
ATOM      1  S1  <0> d          27.496  69.591 -27.349  0.00  0.00     0.263 S 
ATOM      2  O3  <0> d          27.893  69.120 -28.630  0.00  0.00    -0.200 OA
ATOM      3  O4  <0> d          27.383  70.975 -27.048  0.00  0.00    -0.200 OA
ENDROOT
BRANCH   1   4
ATOM      4  C5  <0> d          28.636  68.915 -26.189  0.00  0.00     0.082 A 
ATOM      5  C4  <0> d          29.322  67.754 -26.491  0.00  0.00     0.028 A 
ATOM      6  C3  <0> d          30.222  67.222 -25.587  0.00  0.00     0.041 A 
ATOM      7  C2  <0> d          30.430  67.849 -24.368  0.00  0.00     0.101 A 
ATOM      8  C7  <0> d          29.736  69.014 -24.061  0.00  0.00     0.102 A 
ATOM      9  C6  <0> d          28.839  69.545 -24.974  0.00  0.00     0.065 A 
BRANCH   7  10
ATOM     10  O1  <0> d          31.312  67.324 -23.475  0.00  0.00    -0.353 OA
ATOM     11  C1  <0> d          32.677  67.725 -23.598  0.00  0.00     0.210 C 
ENDBRANCH   7  10
BRANCH   8  12
ATOM     12  O2  <0> d          29.938  69.632 -22.866  0.00  0.00    -0.353 OA
ATOM     13  C8  <0> d          28.778  69.919 -22.080  0.00  0.00     0.210 C 
ENDBRANCH   8  12
ENDBRANCH   1   4
BRANCH   1  14
ATOM     14  N1  <0> d          26.017  68.916 -27.033  0.00  0.00    -0.281 N 
ATOM     15  H10 <0> d          25.766  68.080 -27.456  0.00  0.00     0.179 HD
BRANCH  14  16
ATOM     16  C9  <0> d          25.130  69.554 -26.164  0.00  0.00     0.042 A 
ATOM     17  C14 <0> d          24.148  70.396 -26.667  0.00  0.00     0.031 A 
ATOM     18  C13 <0> d          23.272  71.027 -25.804  0.00  0.00     0.020 A 
ATOM     19  C12 <0> d          23.372  70.819 -24.441  0.00  0.00     0.006 A 
ATOM     20  C11 <0> d          24.350  69.980 -23.936  0.00  0.00     0.020 A 
ATOM     21  I1  <0> d          22.041  71.776 -23.136  0.00  0.00    -0.045 I 
ATOM     22  C10 <0> d          25.224  69.342 -24.794  0.00  0.00     0.031 A 
ENDBRANCH  14  16
ENDBRANCH   1  14
TORSDOF 5
ENDMDL
MODEL 4
REMARK VINA RESULT:      -6.1      3.513      7.399
REMARK  5 active torsions:
REMARK  status: ('A' for Active; 'I' for Inactive)
REMARK    1  A    between atoms: O1_2  and  C2_3 
REMARK    2  A    between atoms: C5_6  and  S1_11 
REMARK    3  A    between atoms: C7_8  and  O2_9 
REMARK    4  A    between atoms: S1_11  and  N1_14 
REMARK    5  A    between atoms: N1_14  and  C9_15 
ROOT
ATOM      1  S1  <0> d          27.431  69.738 -28.096  0.00  0.00     0.263 S 
ATOM      2  O3  <0> d          27.838  70.985 -27.547  0.00  0.00    -0.200 OA
ATOM      3  O4  <0> d          27.810  69.321 -29.400  0.00  0.00    -0.200 OA
ENDROOT
BRANCH   1   4
ATOM      4  C5  <0> d          25.671  69.720 -28.052  0.00  0.00     0.082 A 
ATOM      5  C4  <0> d          25.005  68.639 -27.504  0.00  0.00     0.028 A 
ATOM      6  C3  <0> d          23.623  68.622 -27.463  0.00  0.00     0.041 A 
ATOM      7  C2  <0> d          22.902  69.686 -27.981  0.00  0.00     0.101 A 
ATOM      8  C7  <0> d          23.571  70.771 -28.537  0.00  0.00     0.102 A 
ATOM      9  C6  <0> d          24.956  70.784 -28.571  0.00  0.00     0.065 A 
BRANCH   7  10
ATOM     10  O1  <0> d          21.542  69.668 -27.945  0.00  0.00    -0.353 OA
ATOM     11  C1  <0> d          20.878  68.870 -28.925  0.00  0.00     0.210 C 
ENDBRANCH   7  10
BRANCH   8  12
ATOM     12  O2  <0> d          22.867  71.817 -29.046  0.00  0.00    -0.353 OA
ATOM     13  C8  <0> d          22.568  71.779 -30.444  0.00  0.00     0.210 C 
ENDBRANCH   8  12
ENDBRANCH   1   4
BRANCH   1  14
ATOM     14  N1  <0> d          27.960  68.566 -27.052  0.00  0.00    -0.281 N 
ATOM     15  H10 <0> d          28.001  67.641 -27.342  0.00  0.00     0.179 HD
BRANCH  14  16
ATOM     16  C9  <0> d          28.341  68.908 -25.753  0.00  0.00     0.042 A 
ATOM     17  C14 <0> d          29.677  68.843 -25.380  0.00  0.00     0.031 A 
ATOM     18  C13 <0> d          30.051  69.181 -24.094  0.00  0.00     0.020 A 
ATOM     19  C12 <0> d          29.097  69.586 -23.178  0.00  0.00     0.006 A 
ATOM     20  C11 <0> d          27.764  69.653 -23.547  0.00  0.00     0.020 A 
ATOM     21  I1  <0> d          29.668  70.099 -21.229  0.00  0.00    -0.045 I 
ATOM     22  C10 <0> d          27.385  69.322 -24.833  0.00  0.00     0.031 A 
ENDBRANCH  14  16
ENDBRANCH   1  14
TORSDOF 5
ENDMDL
MODEL 5
REMARK VINA RESULT:      -6.0      2.025      2.957
REMARK  5 active torsions:
REMARK  status: ('A' for Active; 'I' for Inactive)
REMARK    1  A    between atoms: O1_2  and  C2_3 
REMARK    2  A    between atoms: C5_6  and  S1_11 
REMARK    3  A    between atoms: C7_8  and  O2_9 
REMARK    4  A    between atoms: S1_11  and  N1_14 
REMARK    5  A    between atoms: N1_14  and  C9_15 
ROOT
ATOM      1  S1  <0> d          28.203  69.398 -26.422  0.00  0.00     0.263 S 
ATOM      2  O3  <0> d          28.870  68.321 -27.067  0.00  0.00    -0.200 OA
ATOM      3  O4  <0> d          28.301  70.739 -26.881  0.00  0.00    -0.200 OA
ENDROOT
BRANCH   1   4
ATOM      4  C5  <0> d          28.749  69.397 -24.747  0.00  0.00     0.082 A 
ATOM      5  C4  <0> d          27.918  69.872 -23.750  0.00  0.00     0.028 A 
ATOM      6  C3  <0> d          28.340  69.869 -22.433  0.00  0.00     0.041 A 
ATOM      7  C2  <0> d          29.604  69.399 -22.113  0.00  0.00     0.101 A 
ATOM      8  C7  <0> d          30.443  68.926 -23.117  0.00  0.00     0.102 A 
ATOM      9  C6  <0> d          30.012  68.927 -24.433  0.00  0.00     0.065 A 
BRANCH   7  10
ATOM     10  O1  <0> d          30.022  69.399 -20.818  0.00  0.00    -0.353 OA
ATOM     11  C1  <0> d          30.475  70.644 -20.283  0.00  0.00     0.210 C 
ENDBRANCH   7  10
BRANCH   8  12
ATOM     12  O2  <0> d          31.684  68.463 -22.806  0.00  0.00    -0.353 OA
ATOM     13  C8  <0> d          32.316  67.609 -23.763  0.00  0.00     0.210 C 
ENDBRANCH   8  12
ENDBRANCH   1   4
BRANCH   1  14
ATOM     14  N1  <0> d          26.591  69.018 -26.411  0.00  0.00    -0.281 N 
ATOM     15  H10 <0> d          26.301  68.141 -26.113  0.00  0.00     0.179 HD
BRANCH  14  16
ATOM     16  C9  <0> d          25.650  69.957 -26.837  0.00  0.00     0.042 A 
ATOM     17  C14 <0> d          25.355  70.084 -28.188  0.00  0.00     0.031 A 
ATOM     18  C13 <0> d          24.424  71.014 -28.607  0.00  0.00     0.020 A 
ATOM     19  C12 <0> d          23.784  71.819 -27.682  0.00  0.00     0.006 A 
ATOM     20  C11 <0> d          24.075  71.695 -26.335  0.00  0.00     0.020 A 
ATOM     21  I1  <0> d          22.373  73.229 -28.322  0.00  0.00    -0.045 I 
ATOM     22  C10 <0> d          25.000  70.763 -25.910  0.00  0.00     0.031 A 
ENDBRANCH  14  16
ENDBRANCH   1  14
TORSDOF 5
ENDMDL
MODEL 6
REMARK VINA RESULT:      -6.0      3.578      7.475
REMARK  5 active torsions:
REMARK  status: ('A' for Active; 'I' for Inactive)
REMARK    1  A    between atoms: O1_2  and  C2_3 
REMARK    2  A    between atoms: C5_6  and  S1_11 
REMARK    3  A    between atoms: C7_8  and  O2_9 
REMARK    4  A    between atoms: S1_11  and  N1_14 
REMARK    5  A    between atoms: N1_14  and  C9_15 
ROOT
ATOM      1  S1  <0> d          27.710  69.663 -27.645  0.00  0.00     0.263 S 
ATOM      2  O3  <0> d          28.235  70.877 -27.123  0.00  0.00    -0.200 OA
ATOM      3  O4  <0> d          28.217  69.063 -28.829  0.00  0.00    -0.200 OA
ENDROOT
BRANCH   1   4
ATOM      4  C5  <0> d          25.990  69.932 -27.912  0.00  0.00     0.082 A 
ATOM      5  C4  <0> d          25.569  71.011 -28.665  0.00  0.00     0.028 A 
ATOM      6  C3  <0> d          24.220  71.224 -28.883  0.00  0.00     0.041 A 
ATOM      7  C2  <0> d          23.287  70.357 -28.336  0.00  0.00     0.101 A 
ATOM      8  C7  <0> d          23.710  69.273 -27.574  0.00  0.00     0.102 A 
ATOM      9  C6  <0> d          25.063  69.064 -27.363  0.00  0.00     0.065 A 
BRANCH   7  10
ATOM     10  O1  <0> d          21.959  70.567 -28.545  0.00  0.00    -0.353 OA
ATOM     11  C1  <0> d          21.488  70.454 -29.888  0.00  0.00     0.210 C 
ENDBRANCH   7  10
BRANCH   8  12
ATOM     12  O2  <0> d          22.797  68.421 -27.035  0.00  0.00    -0.353 OA
ATOM     13  C8  <0> d          22.350  67.343 -27.861  0.00  0.00     0.210 C 
ENDBRANCH   8  12
ENDBRANCH   1   4
BRANCH   1  14
ATOM     14  N1  <0> d          27.849  68.532 -26.444  0.00  0.00    -0.281 N 
ATOM     15  H10 <0> d          27.489  67.641 -26.573  0.00  0.00     0.179 HD
BRANCH  14  16
ATOM     16  C9  <0> d          28.480  68.863 -25.242  0.00  0.00     0.042 A 
ATOM     17  C14 <0> d          27.746  69.412 -24.199  0.00  0.00     0.031 A 
ATOM     18  C13 <0> d          28.372  69.740 -23.013  0.00  0.00     0.020 A 
ATOM     19  C12 <0> d          29.729  69.520 -22.862  0.00  0.00     0.006 A 
ATOM     20  C11 <0> d          30.464  68.973 -23.899  0.00  0.00     0.020 A 
ATOM     21  I1  <0> d          30.676  70.018 -21.060  0.00  0.00    -0.045 I 
ATOM     22  C10 <0> d          29.842  68.638 -25.085  0.00  0.00     0.031 A 
ENDBRANCH  14  16
ENDBRANCH   1  14
TORSDOF 5
ENDMDL
MODEL 7
REMARK VINA RESULT:      -5.9      4.245      5.899
REMARK  5 active torsions:
REMARK  status: ('A' for Active; 'I' for Inactive)
REMARK    1  A    between atoms: O1_2  and  C2_3 
REMARK    2  A    between atoms: C5_6  and  S1_11 
REMARK    3  A    between atoms: C7_8  and  O2_9 
REMARK    4  A    between atoms: S1_11  and  N1_14 
REMARK    5  A    between atoms: N1_14  and  C9_15 
ROOT
ATOM      1  S1  <0> d          27.925  71.270 -22.799  0.00  0.00     0.263 S 
ATOM      2  O3  <0> d          28.672  72.466 -22.981  0.00  0.00    -0.200 OA
ATOM      3  O4  <0> d          28.200  70.354 -21.748  0.00  0.00    -0.200 OA
ENDROOT
BRANCH   1   4
ATOM      4  C5  <0> d          28.054  70.363 -24.303  0.00  0.00     0.082 A 
ATOM      5  C4  <0> d          27.176  70.618 -25.340  0.00  0.00     0.028 A 
ATOM      6  C3  <0> d          27.275  69.913 -26.525  0.00  0.00     0.041 A 
ATOM      7  C2  <0> d          28.251  68.940 -26.671  0.00  0.00     0.101 A 
ATOM      8  C7  <0> d          29.132  68.679 -25.626  0.00  0.00     0.102 A 
ATOM      9  C6  <0> d          29.029  69.393 -24.443  0.00  0.00     0.065 A 
BRANCH   7  10
ATOM     10  O1  <0> d          28.348  68.241 -27.834  0.00  0.00    -0.353 OA
ATOM     11  C1  <0> d          27.522  68.669 -28.918  0.00  0.00     0.210 C 
ENDBRANCH   7  10
BRANCH   8  12
ATOM     12  O2  <0> d          30.091  67.725 -25.765  0.00  0.00    -0.353 OA
ATOM     13  C8  <0> d          29.974  66.562 -24.941  0.00  0.00     0.210 C 
ENDBRANCH   8  12
ENDBRANCH   1   4
BRANCH   1  14
ATOM     14  N1  <0> d          26.341  71.721 -22.632  0.00  0.00    -0.281 N 
ATOM     15  H10 <0> d          26.012  72.515 -23.083  0.00  0.00     0.179 HD
BRANCH  14  16
ATOM     16  C9  <0> d          25.478  70.961 -21.838  0.00  0.00     0.042 A 
ATOM     17  C14 <0> d          24.893  69.811 -22.351  0.00  0.00     0.031 A 
ATOM     18  C13 <0> d          24.040  69.062 -21.564  0.00  0.00     0.020 A 
ATOM     19  C12 <0> d          23.770  69.456 -20.266  0.00  0.00     0.006 A 
ATOM     20  C11 <0> d          24.352  70.601 -19.752  0.00  0.00     0.020 A 
ATOM     21  I1  <0> d          22.476  68.316 -19.076  0.00  0.00    -0.045 I 
ATOM     22  C10 <0> d          25.210  71.351 -20.532  0.00  0.00     0.031 A 
ENDBRANCH  14  16
ENDBRANCH   1  14
TORSDOF 5
ENDMDL
MODEL 8
REMARK VINA RESULT:      -5.9     21.118     24.012
REMARK  5 active torsions:
REMARK  status: ('A' for Active; 'I' for Inactive)
REMARK    1  A    between atoms: O1_2  and  C2_3 
REMARK    2  A    between atoms: C5_6  and  S1_11 
REMARK    3  A    between atoms: C7_8  and  O2_9 
REMARK    4  A    between atoms: S1_11  and  N1_14 
REMARK    5  A    between atoms: N1_14  and  C9_15 
ROOT
ATOM      1  S1  <0> d          31.663  59.067  -7.096  0.00  0.00     0.263 S 
ATOM      2  O3  <0> d          32.211  59.178  -5.789  0.00  0.00    -0.200 OA
ATOM      3  O4  <0> d          31.769  60.110  -8.056  0.00  0.00    -0.200 OA
ENDROOT
BRANCH   1   4
ATOM      4  C5  <0> d          29.944  58.740  -6.895  0.00  0.00     0.082 A 
ATOM      5  C4  <0> d          29.444  58.419  -5.647  0.00  0.00     0.028 A 
ATOM      6  C3  <0> d          28.094  58.167  -5.483  0.00  0.00     0.041 A 
ATOM      7  C2  <0> d          27.242  58.225  -6.574  0.00  0.00     0.101 A 
ATOM      8  C7  <0> d          27.745  58.543  -7.831  0.00  0.00     0.102 A 
ATOM      9  C6  <0> d          29.098  58.800  -7.988  0.00  0.00     0.065 A 
BRANCH   7  10
ATOM     10  O1  <0> d          25.914  57.973  -6.415  0.00  0.00    -0.353 OA
ATOM     11  C1  <0> d          25.556  56.698  -5.879  0.00  0.00     0.210 C 
ENDBRANCH   7  10
BRANCH   8  12
ATOM     12  O2  <0> d          26.912  58.602  -8.904  0.00  0.00    -0.353 OA
ATOM     13  C8  <0> d          27.049  59.730  -9.772  0.00  0.00     0.210 C 
ENDBRANCH   8  12
ENDBRANCH   1   4
BRANCH   1  14
ATOM     14  N1  <0> d          32.341  57.721  -7.782  0.00  0.00    -0.281 N 
ATOM     15  H10 <0> d          32.634  57.743  -8.707  0.00  0.00     0.179 HD
BRANCH  14  16
ATOM     16  C9  <0> d          32.487  56.553  -7.031  0.00  0.00     0.042 A 
ATOM     17  C14 <0> d          31.395  55.721  -6.820  0.00  0.00     0.031 A 
ATOM     18  C13 <0> d          31.542  54.566  -6.076  0.00  0.00     0.020 A 
ATOM     19  C12 <0> d          32.774  54.238  -5.542  0.00  0.00     0.006 A 
ATOM     20  C11 <0> d          33.864  55.065  -5.750  0.00  0.00     0.020 A 
ATOM     21  I1  <0> d          32.992  52.485  -4.415  0.00  0.00    -0.045 I 
ATOM     22  C10 <0> d          33.725  56.217  -6.498  0.00  0.00     0.031 A 
ENDBRANCH  14  16
ENDBRANCH   1  14
TORSDOF 5
ENDMDL
MODEL 9
REMARK VINA RESULT:      -5.9      3.737      5.535
REMARK  5 active torsions:
REMARK  status: ('A' for Active; 'I' for Inactive)
REMARK    1  A    between atoms: O1_2  and  C2_3 
REMARK    2  A    between atoms: C5_6  and  S1_11 
REMARK    3  A    between atoms: C7_8  and  O2_9 
REMARK    4  A    between atoms: S1_11  and  N1_14 
REMARK    5  A    between atoms: N1_14  and  C9_15 
ROOT
ATOM      1  S1  <0> d          29.489  69.945 -22.805  0.00  0.00     0.263 S 
ATOM      2  O3  <0> d          30.711  69.487 -23.369  0.00  0.00    -0.200 OA
ATOM      3  O4  <0> d          28.990  71.256 -23.033  0.00  0.00    -0.200 OA
ENDROOT
BRANCH   1   4
ATOM      4  C5  <0> d          29.640  69.760 -21.060  0.00  0.00     0.082 A 
ATOM      5  C4  <0> d          30.811  70.130 -20.426  0.00  0.00     0.028 A 
ATOM      6  C3  <0> d          30.933  69.992 -19.055  0.00  0.00     0.041 A 
ATOM      7  C2  <0> d          29.883  69.472 -18.316  0.00  0.00     0.101 A 
ATOM      8  C7  <0> d          28.705  69.096 -18.955  0.00  0.00     0.102 A 
ATOM      9  C6  <0> d          28.588  69.241 -20.327  0.00  0.00     0.065 A 
BRANCH   7  10
ATOM     10  O1  <0> d          30.003  69.332 -16.968  0.00  0.00    -0.353 OA
ATOM     11  C1  <0> d          31.308  69.055 -16.459  0.00  0.00     0.210 C 
ENDBRANCH   7  10
BRANCH   8  12
ATOM     12  O2  <0> d          27.672  68.586 -18.233  0.00  0.00    -0.353 OA
ATOM     13  C8  <0> d          26.776  67.704 -18.915  0.00  0.00     0.210 C 
ENDBRANCH   8  12
ENDBRANCH   1   4
BRANCH   1  14
ATOM     14  N1  <0> d          28.312  68.895 -23.309  0.00  0.00    -0.281 N 
ATOM     15  H10 <0> d          28.209  68.036 -22.872  0.00  0.00     0.179 HD
BRANCH  14  16
ATOM     16  C9  <0> d          27.471  69.246 -24.368  0.00  0.00     0.042 A 
ATOM     17  C14 <0> d          27.970  69.310 -25.661  0.00  0.00     0.031 A 
ATOM     18  C13 <0> d          27.137  69.657 -26.707  0.00  0.00     0.020 A 
ATOM     19  C12 <0> d          25.805  69.940 -26.466  0.00  0.00     0.006 A 
ATOM     20  C11 <0> d          25.303  69.877 -25.177  0.00  0.00     0.020 A 
ATOM     21  I1  <0> d          24.543  70.467 -28.054  0.00  0.00    -0.045 I 
ATOM     22  C10 <0> d          26.130  69.524 -24.130  0.00  0.00     0.031 A 
ENDBRANCH  14  16
ENDBRANCH   1  14
TORSDOF 5
ENDMDL
MODEL 10
REMARK VINA RESULT:      -5.9      4.375      6.796
REMARK  5 active torsions:
REMARK  status: ('A' for Active; 'I' for Inactive)
REMARK    1  A    between atoms: O1_2  and  C2_3 
REMARK    2  A    between atoms: C5_6  and  S1_11 
REMARK    3  A    between atoms: C7_8  and  O2_9 
REMARK    4  A    between atoms: S1_11  and  N1_14 
REMARK    5  A    between atoms: N1_14  and  C9_15 
ROOT
ATOM      1  S1  <0> d          30.163  69.703 -22.015  0.00  0.00     0.263 S 
ATOM      2  O3  <0> d          31.360  68.936 -22.000  0.00  0.00    -0.200 OA
ATOM      3  O4  <0> d          30.060  70.938 -22.710  0.00  0.00    -0.200 OA
ENDROOT
BRANCH   1   4
ATOM      4  C5  <0> d          29.756  70.036 -20.334  0.00  0.00     0.082 A 
ATOM      5  C4  <0> d          28.544  70.620 -20.020  0.00  0.00     0.028 A 
ATOM      6  C3  <0> d          28.217  70.878 -18.702  0.00  0.00     0.041 A 
ATOM      7  C2  <0> d          29.112  70.560 -17.693  0.00  0.00     0.101 A 
ATOM      8  C7  <0> d          30.334  69.976 -18.008  0.00  0.00     0.102 A 
ATOM      9  C6  <0> d          30.653  69.716 -19.331  0.00  0.00     0.065 A 
BRANCH   7  10
ATOM     10  O1  <0> d          28.794  70.818 -16.395  0.00  0.00    -0.353 OA
ATOM     11  C1  <0> d          27.701  71.707 -16.159  0.00  0.00     0.210 C 
ENDBRANCH   7  10
BRANCH   8  12
ATOM     12  O2  <0> d          31.215  69.663 -17.020  0.00  0.00    -0.353 OA
ATOM     13  C8  <0> d          31.274  68.293 -16.615  0.00  0.00     0.210 C 
ENDBRANCH   8  12
ENDBRANCH   1   4
BRANCH   1  14
ATOM     14  N1  <0> d          28.977  68.719 -22.621  0.00  0.00    -0.281 N 
ATOM     15  H10 <0> d          28.577  68.038 -22.058  0.00  0.00     0.179 HD
BRANCH  14  16
ATOM     16  C9  <0> d          28.558  68.865 -23.946  0.00  0.00     0.042 A 
ATOM     17  C14 <0> d          29.360  68.411 -24.984  0.00  0.00     0.031 A 
ATOM     18  C13 <0> d          28.943  68.557 -26.293  0.00  0.00     0.020 A 
ATOM     19  C12 <0> d          27.727  69.155 -26.569  0.00  0.00     0.006 A 
ATOM     20  C11 <0> d          26.925  69.609 -25.537  0.00  0.00     0.020 A 
ATOM     21  I1  <0> d          27.098  69.376 -28.556  0.00  0.00    -0.045 I 
ATOM     22  C10 <0> d          27.334  69.460 -24.227  0.00  0.00     0.031 A 
ENDBRANCH  14  16
ENDBRANCH   1  14
TORSDOF 5
ENDMDL
