MODEL 1
REMARK VINA RESULT:      -5.9      0.000      0.000
REMARK  0 active torsions:
REMARK  status: ('A' for Active; 'I' for Inactive)
ROOT
ATOM      1  C1  <0> d           8.826  49.809 -26.864  0.00  0.00     0.042 C 
ATOM      2  C2  <0> d           9.348  51.201 -27.060  0.00  0.00     0.036 A 
ATOM      3  C3  <0> d          10.144  51.799 -25.890  0.00  0.00     0.036 A 
ATOM      4  C4  <0> d           9.065  52.579 -26.535  0.00  0.00     0.122 A 
ATOM      5 Cl1  <0> d           7.532  52.790 -25.611  0.00  0.00    -0.101 Cl
ATOM      6 Cl2  <0> d           9.560  53.991 -27.541  0.00  0.00    -0.101 Cl
ATOM      7  C5  <0> d          11.656  51.760 -26.020  0.00  0.00     0.042 C 
ATOM      8  C6  <0> d          11.943  50.287 -26.244  0.00  0.00    -0.075 C 
ATOM      9  C7  <0> d          12.861  49.701 -26.965  0.00  0.00     0.003 C 
ATOM     10  C8  <0> d          12.875  48.245 -27.106  0.00  0.00     0.000 C 
ATOM     11  C9  <0> d          11.815  47.458 -27.259  0.00  0.00     0.000 C 
ATOM     12  C10 <0> d          10.448  47.956 -27.374  0.00  0.00     0.003 C 
ATOM     13  C11 <0> d          10.045  48.965 -26.635  0.00  0.00    -0.075 C 
ATOM     14  C12 <0> d          10.975  49.356 -25.482  0.00  0.00     0.068 C 
ENDROOT
TORSDOF 0
ENDMDL
MODEL 2
REMARK VINA RESULT:      -5.7     23.760     25.271
REMARK  0 active torsions:
REMARK  status: ('A' for Active; 'I' for Inactive)
ROOT
ATOM      1  C1  <0> d          28.236  69.135 -22.380  0.00  0.00     0.042 C 
ATOM      2  C2  <0> d          27.289  68.420 -21.465  0.00  0.00     0.036 A 
ATOM      3  C3  <0> d          26.174  69.271 -20.841  0.00  0.00     0.036 A 
ATOM      4  C4  <0> d          26.987  68.370 -19.995  0.00  0.00     0.122 A 
ATOM      5 Cl1  <0> d          28.195  69.135 -18.898  0.00  0.00    -0.101 Cl
ATOM      6 Cl2  <0> d          26.174  66.899 -19.342  0.00  0.00    -0.101 Cl
ATOM      7  C5  <0> d          24.809  69.172 -21.499  0.00  0.00     0.042 C 
ATOM      8  C6  <0> d          25.098  69.536 -22.944  0.00  0.00    -0.075 C 
ATOM      9  C7  <0> d          24.562  69.100 -24.052  0.00  0.00     0.003 C 
ATOM     10  C8  <0> d          25.085  69.533 -25.347  0.00  0.00     0.000 C 
ATOM     11  C9  <0> d          26.365  69.691 -25.667  0.00  0.00     0.000 C 
ATOM     12  C10 <0> d          27.468  69.386 -24.762  0.00  0.00     0.003 C 
ATOM     13  C11 <0> d          27.376  69.677 -23.483  0.00  0.00    -0.075 C 
ATOM     14  C12 <0> d          26.212  70.594 -23.093  0.00  0.00     0.068 C 
ENDROOT
TORSDOF 0
ENDMDL
MODEL 3
REMARK VINA RESULT:      -5.6      3.140      5.407
REMARK  0 active torsions:
REMARK  status: ('A' for Active; 'I' for Inactive)
ROOT
ATOM      1  C1  <0> d           8.422  53.399 -27.260  0.00  0.00     0.042 C 
ATOM      2  C2  <0> d           9.548  52.696 -26.564  0.00  0.00     0.036 A 
ATOM      3  C3  <0> d          10.628  52.083 -27.468  0.00  0.00     0.036 A 
ATOM      4  C4  <0> d          10.031  51.286 -26.374  0.00  0.00     0.122 A 
ATOM      5 Cl1  <0> d           8.887  49.974 -26.838  0.00  0.00    -0.101 Cl
ATOM      6 Cl2  <0> d          11.078  50.930 -24.950  0.00  0.00    -0.101 Cl
ATOM      7  C5  <0> d          11.905  52.889 -27.627  0.00  0.00     0.042 C 
ATOM      8  C6  <0> d          11.403  54.232 -28.125  0.00  0.00    -0.075 C 
ATOM      9  C7  <0> d          11.846  55.440 -27.900  0.00  0.00     0.003 C 
ATOM     10  C8  <0> d          11.124  56.601 -28.418  0.00  0.00     0.000 C 
ATOM     11  C9  <0> d           9.804  56.759 -28.450  0.00  0.00     0.000 C 
ATOM     12  C10 <0> d           8.862  55.792 -27.897  0.00  0.00     0.003 C 
ATOM     13  C11 <0> d           9.075  54.503 -28.038  0.00  0.00    -0.075 C 
ATOM     14  C12 <0> d          10.166  54.117 -29.042  0.00  0.00     0.068 C 
ENDROOT
TORSDOF 0
ENDMDL
MODEL 4
REMARK VINA RESULT:      -5.5      2.512      3.784
REMARK  0 active torsions:
REMARK  status: ('A' for Active; 'I' for Inactive)
ROOT
ATOM      1  C1  <0> d          10.000  54.195 -28.195  0.00  0.00     0.042 C 
ATOM      2  C2  <0> d           8.789  54.150 -27.312  0.00  0.00     0.036 A 
ATOM      3  C3  <0> d           7.981  52.845 -27.332  0.00  0.00     0.036 A 
ATOM      4  C4  <0> d           7.296  54.148 -27.471  0.00  0.00     0.122 A 
ATOM      5 Cl1  <0> d           6.659  54.577 -29.101  0.00  0.00    -0.101 Cl
ATOM      6 Cl2  <0> d           6.291  54.702 -26.080  0.00  0.00    -0.101 Cl
ATOM      7  C5  <0> d           8.228  51.887 -26.181  0.00  0.00     0.042 C 
ATOM      8  C6  <0> d           9.727  51.659 -26.238  0.00  0.00    -0.075 C 
ATOM      9  C7  <0> d          10.593  51.464 -25.281  0.00  0.00     0.003 C 
ATOM     10  C8  <0> d          12.021  51.369 -25.583  0.00  0.00     0.000 C 
ATOM     11  C9  <0> d          12.693  52.110 -26.458  0.00  0.00     0.000 C 
ATOM     12  C10 <0> d          12.095  53.200 -27.221  0.00  0.00     0.003 C 
ATOM     13  C11 <0> d          10.879  53.082 -27.706  0.00  0.00    -0.075 C 
ATOM     14  C12 <0> d          10.288  51.668 -27.677  0.00  0.00     0.068 C 
ENDROOT
TORSDOF 0
ENDMDL
MODEL 5
REMARK VINA RESULT:      -5.4     45.251     46.364
REMARK  0 active torsions:
REMARK  status: ('A' for Active; 'I' for Inactive)
ROOT
ATOM      1  C1  <0> d          46.143  77.143 -35.246  0.00  0.00     0.042 C 
ATOM      2  C2  <0> d          46.776  78.502 -35.268  0.00  0.00     0.036 A 
ATOM      3  C3  <0> d          46.389  79.451 -34.125  0.00  0.00     0.036 A 
ATOM      4  C4  <0> d          46.358  79.920 -35.527  0.00  0.00     0.122 A 
ATOM      5 Cl1  <0> d          44.739  80.157 -36.283  0.00  0.00    -0.101 Cl
ATOM      6 Cl2  <0> d          47.624  81.103 -36.027  0.00  0.00    -0.101 Cl
ATOM      7  C5  <0> d          47.384  79.565 -32.984  0.00  0.00     0.042 C 
ATOM      8  C6  <0> d          47.554  78.127 -32.531  0.00  0.00    -0.075 C 
ATOM      9  C7  <0> d          48.601  77.503 -32.063  0.00  0.00     0.003 C 
ATOM     10  C8  <0> d          48.544  76.067 -31.786  0.00  0.00     0.000 C 
ATOM     11  C9  <0> d          47.943  75.144 -32.529  0.00  0.00     0.000 C 
ATOM     12  C10 <0> d          47.286  75.432 -33.800  0.00  0.00     0.003 C 
ATOM     13  C11 <0> d          46.581  76.531 -33.948  0.00  0.00    -0.075 C 
ATOM     14  C12 <0> d          46.260  77.293 -32.658  0.00  0.00     0.068 C 
ENDROOT
TORSDOF 0
ENDMDL
MODEL 6
REMARK VINA RESULT:      -5.4      1.627      2.399
REMARK  0 active torsions:
REMARK  status: ('A' for Active; 'I' for Inactive)
ROOT
ATOM      1  C1  <0> d           9.151  52.179 -27.383  0.00  0.00     0.042 C 
ATOM      2  C2  <0> d          10.350  52.789 -28.045  0.00  0.00     0.036 A 
ATOM      3  C3  <0> d          11.419  53.373 -27.109  0.00  0.00     0.036 A 
ATOM      4  C4  <0> d          10.925  54.159 -28.261  0.00  0.00     0.122 A 
ATOM      5 Cl1  <0> d           9.839  55.553 -27.905  0.00  0.00    -0.101 Cl
ATOM      6 Cl2  <0> d          12.059  54.398 -29.642  0.00  0.00    -0.101 Cl
ATOM      7  C5  <0> d          12.636  52.502 -26.857  0.00  0.00     0.042 C 
ATOM      8  C6  <0> d          12.032  51.211 -26.336  0.00  0.00    -0.075 C 
ATOM      9  C7  <0> d          12.413  49.972 -26.493  0.00  0.00     0.003 C 
ATOM     10  C8  <0> d          11.598  48.875 -25.971  0.00  0.00     0.000 C 
ATOM     11  C9  <0> d          10.271  48.794 -26.002  0.00  0.00     0.000 C 
ATOM     12  C10 <0> d           9.416  49.792 -26.637  0.00  0.00     0.003 C 
ATOM     13  C11 <0> d           9.699  51.071 -26.532  0.00  0.00    -0.075 C 
ATOM     14  C12 <0> d          10.760  51.433 -25.488  0.00  0.00     0.068 C 
ENDROOT
TORSDOF 0
ENDMDL
MODEL 7
REMARK VINA RESULT:      -5.3     11.770     13.334
REMARK  0 active torsions:
REMARK  status: ('A' for Active; 'I' for Inactive)
ROOT
ATOM      1  C1  <0> d          21.717  53.076 -30.464  0.00  0.00     0.042 C 
ATOM      2  C2  <0> d          21.443  54.474 -30.930  0.00  0.00     0.036 A 
ATOM      3  C3  <0> d          21.306  55.540 -29.833  0.00  0.00     0.036 A 
ATOM      4  C4  <0> d          20.299  55.448 -30.914  0.00  0.00     0.122 A 
ATOM      5 Cl1  <0> d          18.681  54.783 -30.480  0.00  0.00    -0.101 Cl
ATOM      6 Cl2  <0> d          20.287  56.767 -32.142  0.00  0.00    -0.101 Cl
ATOM      7  C5  <0> d          22.528  56.407 -29.586  0.00  0.00     0.042 C 
ATOM      8  C6  <0> d          23.616  55.390 -29.295  0.00  0.00    -0.075 C 
ATOM      9  C7  <0> d          24.891  55.408 -29.576  0.00  0.00     0.003 C 
ATOM     10  C8  <0> d          25.731  54.248 -29.277  0.00  0.00     0.000 C 
ATOM     11  C9  <0> d          25.399  52.971 -29.438  0.00  0.00     0.000 C 
ATOM     12  C10 <0> d          24.131  52.533 -30.013  0.00  0.00     0.003 C 
ATOM     13  C11 <0> d          23.016  53.163 -29.719  0.00  0.00    -0.075 C 
ATOM     14  C12 <0> d          23.098  54.144 -28.544  0.00  0.00     0.068 C 
ENDROOT
TORSDOF 0
ENDMDL
MODEL 8
REMARK VINA RESULT:      -5.3     27.177     28.490
REMARK  0 active torsions:
REMARK  status: ('A' for Active; 'I' for Inactive)
ROOT
ATOM      1  C1  <0> d          29.497  56.052  -6.858  0.00  0.00     0.042 C 
ATOM      2  C2  <0> d          30.164  57.237  -6.227  0.00  0.00     0.036 A 
ATOM      3  C3  <0> d          29.884  58.600  -6.876  0.00  0.00     0.036 A 
ATOM      4  C4  <0> d          31.271  58.197  -6.556  0.00  0.00     0.122 A 
ATOM      5 Cl1  <0> d          32.340  57.750  -7.938  0.00  0.00    -0.101 Cl
ATOM      6 Cl2  <0> d          32.085  59.056  -5.197  0.00  0.00    -0.101 Cl
ATOM      7  C5  <0> d          28.841  59.465  -6.192  0.00  0.00     0.042 C 
ATOM      8  C6  <0> d          27.621  58.563  -6.151  0.00  0.00    -0.075 C 
ATOM      9  C7  <0> d          26.676  58.455  -5.256  0.00  0.00     0.003 C 
ATOM     10  C8  <0> d          25.644  57.427  -5.391  0.00  0.00     0.000 C 
ATOM     11  C9  <0> d          25.826  56.175  -5.798  0.00  0.00     0.000 C 
ATOM     12  C10 <0> d          27.133  55.613  -6.120  0.00  0.00     0.003 C 
ATOM     13  C11 <0> d          28.027  56.335  -6.758  0.00  0.00    -0.075 C 
ATOM     14  C12 <0> d          27.509  57.635  -7.380  0.00  0.00     0.068 C 
ENDROOT
TORSDOF 0
ENDMDL
MODEL 9
REMARK VINA RESULT:      -5.2     27.274     28.434
REMARK  0 active torsions:
REMARK  status: ('A' for Active; 'I' for Inactive)
ROOT
ATOM      1  C1  <0> d          28.865  55.762  -6.718  0.00  0.00     0.042 C 
ATOM      2  C2  <0> d          28.583  56.937  -7.605  0.00  0.00     0.036 A 
ATOM      3  C3  <0> d          28.772  58.324  -6.975  0.00  0.00     0.036 A 
ATOM      4  C4  <0> d          27.540  58.010  -7.732  0.00  0.00     0.122 A 
ATOM      5 Cl1  <0> d          26.026  57.778  -6.782  0.00  0.00    -0.101 Cl
ATOM      6 Cl2  <0> d          27.332  58.810  -9.334  0.00  0.00    -0.101 Cl
ATOM      7  C5  <0> d          30.072  59.036  -7.304  0.00  0.00     0.042 C 
ATOM      8  C6  <0> d          31.130  58.037  -6.871  0.00  0.00    -0.075 C 
ATOM      9  C7  <0> d          32.304  57.772  -7.377  0.00  0.00     0.003 C 
ATOM     10  C8  <0> d          33.112  56.678  -6.837  0.00  0.00     0.000 C 
ATOM     11  C9  <0> d          32.669  55.487  -6.449  0.00  0.00     0.000 C 
ATOM     12  C10 <0> d          31.277  55.065  -6.568  0.00  0.00     0.003 C 
ATOM     13  C11 <0> d          30.303  55.912  -6.320  0.00  0.00    -0.075 C 
ATOM     14  C12 <0> d          30.718  57.216  -5.630  0.00  0.00     0.068 C 
ENDROOT
TORSDOF 0
ENDMDL
MODEL 10
REMARK VINA RESULT:      -5.2     23.279     24.960
REMARK  0 active torsions:
REMARK  status: ('A' for Active; 'I' for Inactive)
ROOT
ATOM      1  C1  <0> d          25.321  69.790 -23.996  0.00  0.00     0.042 C 
ATOM      2  C2  <0> d          24.885  69.215 -25.310  0.00  0.00     0.036 A 
ATOM      3  C3  <0> d          25.256  70.024 -26.562  0.00  0.00     0.036 A 
ATOM      4  C4  <0> d          23.876  69.522 -26.379  0.00  0.00     0.122 A 
ATOM      5 Cl1  <0> d          22.606  70.733 -25.964  0.00  0.00    -0.101 Cl
ATOM      6 Cl2  <0> d          23.339  68.179 -27.454  0.00  0.00    -0.101 Cl
ATOM      7  C5  <0> d          26.471  69.542 -27.334  0.00  0.00     0.042 C 
ATOM      8  C6  <0> d          27.566  69.538 -26.283  0.00  0.00    -0.075 C 
ATOM      9  C7  <0> d          28.587  68.740 -26.125  0.00  0.00     0.003 C 
ATOM     10  C8  <0> d          29.460  68.878 -24.959  0.00  0.00     0.000 C 
ATOM     11  C9  <0> d          29.077  69.136 -23.713  0.00  0.00     0.000 C 
ATOM     12  C10 <0> d          27.682  69.262 -23.307  0.00  0.00     0.003 C 
ATOM     13  C11 <0> d          26.816  69.872 -24.085  0.00  0.00    -0.075 C 
ATOM     14  C12 <0> d          27.417  70.673 -25.246  0.00  0.00     0.068 C 
ENDROOT
TORSDOF 0
ENDMDL
