MODEL 1
REMARK VINA RESULT:      -5.4      0.000      0.000
REMARK  7 active torsions:
REMARK  status: ('A' for Active; 'I' for Inactive)
REMARK    1  A    between atoms: C2_2  and  C3_3 
REMARK    2  A    between atoms: C3_3  and  C4_4 
REMARK    3  A    between atoms: C4_4  and  C5_5 
REMARK    4  A    between atoms: C5_5  and  C6_6 
REMARK    5  A    between atoms: C6_6  and  C7_7 
REMARK    6  A    between atoms: C7_7  and  N1_8 
REMARK    7  A    between atoms: C11_12  and  C12_13 
ROOT
ATOM      1  C12 <0> d          32.786  86.635 -15.230  0.00  0.00     0.035 C 
ATOM      2  C13 <0> d          31.979  86.413 -14.099  0.00  0.00     0.124 C 
ATOM      3  C14 <0> d          31.006  85.362 -14.108  0.00  0.00     0.110 C 
ATOM      4  N2  <0> d          30.234  84.529 -14.117  0.00  0.00    -0.191 NA
ATOM      5  C15 <0> d          32.129  87.237 -12.937  0.00  0.00     0.110 C 
ATOM      6  N3  <0> d          32.250  87.892 -12.016  0.00  0.00    -0.191 NA
ENDROOT
BRANCH   1   7
ATOM      7  C11 <0> d          32.643  85.850 -16.335  0.00  0.00     0.013 C 
ATOM      8  C10 <0> d          32.411  86.441 -17.595  0.00  0.00    -0.034 A 
ATOM      9  C9  <0> d          32.266  85.639 -18.752  0.00  0.00     0.028 A 
ATOM     10  C16 <0> d          32.316  87.846 -17.727  0.00  0.00     0.028 A 
ATOM     11  C8  <0> d          32.046  86.236 -19.946  0.00  0.00     0.091 A 
ATOM     12  N1  <0> d          31.964  87.587 -20.040  0.00  0.00    -0.366 N 
ATOM     13  C17 <0> d          32.099  88.382 -18.949  0.00  0.00     0.091 A 
BRANCH  12  14
ATOM     14  C7  <0> d          31.724  88.200 -21.348  0.00  0.00     0.128 C 
BRANCH  14  15
ATOM     15  C6  <0> d          32.582  89.460 -21.486  0.00  0.00     0.020 C 
BRANCH  15  16
ATOM     16  C5  <0> d          33.574  89.278 -22.637  0.00  0.00     0.002 C 
BRANCH  16  17
ATOM     17  C4  <0> d          34.984  89.624 -22.154  0.00  0.00     0.000 C 
BRANCH  17  18
ATOM     18  C3  <0> d          34.897  90.624 -21.000  0.00  0.00    -0.000 C 
BRANCH  18  19
ATOM     19  C2  <0> d          35.633  91.911 -21.382  0.00  0.00    -0.005 C 
ATOM     20  C1  <0> d          35.116  93.068 -20.525  0.00  0.00     0.005 C 
ENDBRANCH  18  19
ENDBRANCH  17  18
ENDBRANCH  16  17
ENDBRANCH  15  16
ENDBRANCH  14  15
ENDBRANCH  12  14
ENDBRANCH   1   7
TORSDOF 7
ENDMDL
MODEL 2
REMARK VINA RESULT:      -5.3     42.909     45.293
REMARK  7 active torsions:
REMARK  status: ('A' for Active; 'I' for Inactive)
REMARK    1  A    between atoms: C2_2  and  C3_3 
REMARK    2  A    between atoms: C3_3  and  C4_4 
REMARK    3  A    between atoms: C4_4  and  C5_5 
REMARK    4  A    between atoms: C5_5  and  C6_6 
REMARK    5  A    between atoms: C6_6  and  C7_7 
REMARK    6  A    between atoms: C7_7  and  N1_8 
REMARK    7  A    between atoms: C11_12  and  C12_13 
ROOT
ATOM      1  C12 <0> d          14.272  46.418 -29.603  0.00  0.00     0.035 C 
ATOM      2  C13 <0> d          15.293  47.291 -30.023  0.00  0.00     0.124 C 
ATOM      3  C14 <0> d          14.964  48.595 -30.516  0.00  0.00     0.110 C 
ATOM      4  N2  <0> d          14.702  49.628 -30.908  0.00  0.00    -0.191 NA
ATOM      5  C15 <0> d          16.662  46.876 -29.957  0.00  0.00     0.110 C 
ATOM      6  N3  <0> d          17.748  46.546 -29.905  0.00  0.00    -0.191 NA
ENDROOT
BRANCH   1   7
ATOM      7  C11 <0> d          12.968  46.814 -29.666  0.00  0.00     0.013 C 
ATOM      8  C10 <0> d          12.366  47.438 -28.552  0.00  0.00    -0.034 A 
ATOM      9  C9  <0> d          11.016  47.859 -28.604  0.00  0.00     0.028 A 
ATOM     10  C16 <0> d          13.098  47.651 -27.361  0.00  0.00     0.028 A 
ATOM     11  C8  <0> d          10.468  48.455 -27.520  0.00  0.00     0.091 A 
ATOM     12  N1  <0> d          11.198  48.648 -26.393  0.00  0.00    -0.366 N 
ATOM     13  C17 <0> d          12.495  48.256 -26.313  0.00  0.00     0.091 A 
BRANCH  12  14
ATOM     14  C7  <0> d          10.574  49.296 -25.237  0.00  0.00     0.128 C 
BRANCH  14  15
ATOM     15  C6  <0> d          11.061  50.743 -25.138  0.00  0.00     0.020 C 
BRANCH  15  16
ATOM     16  C5  <0> d           9.942  51.689 -25.580  0.00  0.00     0.002 C 
BRANCH  16  17
ATOM     17  C4  <0> d          10.374  52.434 -26.844  0.00  0.00     0.000 C 
BRANCH  17  18
ATOM     18  C3  <0> d          11.847  52.139 -27.133  0.00  0.00    -0.000 C 
BRANCH  18  19
ATOM     19  C2  <0> d          11.990  51.590 -28.554  0.00  0.00    -0.005 C 
ATOM     20  C1  <0> d          10.665  51.757 -29.301  0.00  0.00     0.005 C 
ENDBRANCH  18  19
ENDBRANCH  17  18
ENDBRANCH  16  17
ENDBRANCH  15  16
ENDBRANCH  14  15
ENDBRANCH  12  14
ENDBRANCH   1   7
TORSDOF 7
ENDMDL
MODEL 3
REMARK VINA RESULT:      -5.3     40.837     43.500
REMARK  7 active torsions:
REMARK  status: ('A' for Active; 'I' for Inactive)
REMARK    1  A    between atoms: C2_2  and  C3_3 
REMARK    2  A    between atoms: C3_3  and  C4_4 
REMARK    3  A    between atoms: C4_4  and  C5_5 
REMARK    4  A    between atoms: C5_5  and  C6_6 
REMARK    5  A    between atoms: C6_6  and  C7_7 
REMARK    6  A    between atoms: C7_7  and  N1_8 
REMARK    7  A    between atoms: C11_12  and  C12_13 
ROOT
ATOM      1  C12 <0> d           9.434  54.776 -28.260  0.00  0.00     0.035 C 
ATOM      2  C13 <0> d           9.184  56.151 -28.428  0.00  0.00     0.124 C 
ATOM      3  C14 <0> d          10.252  57.095 -28.288  0.00  0.00     0.110 C 
ATOM      4  N2  <0> d          11.099  57.844 -28.177  0.00  0.00    -0.191 NA
ATOM      5  C15 <0> d           7.863  56.607 -28.739  0.00  0.00     0.110 C 
ATOM      6  N3  <0> d           6.814  56.968 -28.986  0.00  0.00    -0.191 NA
ENDROOT
BRANCH   1   7
ATOM      7  C11 <0> d          10.693  54.343 -27.964  0.00  0.00     0.013 C 
ATOM      8  C10 <0> d          10.883  53.066 -27.395  0.00  0.00    -0.034 A 
ATOM      9  C9  <0> d          12.184  52.600 -27.087  0.00  0.00     0.028 A 
ATOM     10  C16 <0> d           9.779  52.228 -27.116  0.00  0.00     0.028 A 
ATOM     11  C8  <0> d          12.334  51.371 -26.543  0.00  0.00     0.091 A 
ATOM     12  N1  <0> d          11.254  50.589 -26.291  0.00  0.00    -0.366 N 
ATOM     13  C17 <0> d           9.995  51.007 -26.575  0.00  0.00     0.091 A 
BRANCH  12  14
ATOM     14  C7  <0> d          11.452  49.263 -25.700  0.00  0.00     0.128 C 
BRANCH  14  15
ATOM     15  C6  <0> d          12.558  48.526 -26.459  0.00  0.00     0.020 C 
BRANCH  15  16
ATOM     16  C5  <0> d          11.979  47.267 -27.108  0.00  0.00     0.002 C 
BRANCH  16  17
ATOM     17  C4  <0> d          11.024  47.668 -28.234  0.00  0.00     0.000 C 
BRANCH  17  18
ATOM     18  C3  <0> d          11.789  48.461 -29.295  0.00  0.00    -0.000 C 
BRANCH  18  19
ATOM     19  C2  <0> d          10.882  49.550 -29.873  0.00  0.00    -0.005 C 
ATOM     20  C1  <0> d          11.721  50.778 -30.228  0.00  0.00     0.005 C 
ENDBRANCH  18  19
ENDBRANCH  17  18
ENDBRANCH  16  17
ENDBRANCH  15  16
ENDBRANCH  14  15
ENDBRANCH  12  14
ENDBRANCH   1   7
TORSDOF 7
ENDMDL
MODEL 4
REMARK VINA RESULT:      -5.2     41.202     43.815
REMARK  7 active torsions:
REMARK  status: ('A' for Active; 'I' for Inactive)
REMARK    1  A    between atoms: C2_2  and  C3_3 
REMARK    2  A    between atoms: C3_3  and  C4_4 
REMARK    3  A    between atoms: C4_4  and  C5_5 
REMARK    4  A    between atoms: C5_5  and  C6_6 
REMARK    5  A    between atoms: C6_6  and  C7_7 
REMARK    6  A    between atoms: C7_7  and  N1_8 
REMARK    7  A    between atoms: C11_12  and  C12_13 
ROOT
ATOM      1  C12 <0> d           9.978  54.616 -27.723  0.00  0.00     0.035 C 
ATOM      2  C13 <0> d           9.445  55.859 -28.110  0.00  0.00     0.124 C 
ATOM      3  C14 <0> d           8.057  55.973 -28.441  0.00  0.00     0.110 C 
ATOM      4  N2  <0> d           6.955  56.063 -28.703  0.00  0.00    -0.191 NA
ATOM      5  C15 <0> d          10.292  57.013 -28.175  0.00  0.00     0.110 C 
ATOM      6  N3  <0> d          10.965  57.927 -28.226  0.00  0.00    -0.191 NA
ENDROOT
BRANCH   1   7
ATOM      7  C11 <0> d           9.170  53.518 -27.662  0.00  0.00     0.013 C 
ATOM      8  C10 <0> d           9.667  52.305 -27.139  0.00  0.00    -0.034 A 
ATOM      9  C9  <0> d           8.841  51.159 -27.064  0.00  0.00     0.028 A 
ATOM     10  C16 <0> d          11.004  52.209 -26.685  0.00  0.00     0.028 A 
ATOM     11  C8  <0> d           9.346  50.011 -26.558  0.00  0.00     0.091 A 
ATOM     12  N1  <0> d          10.631  49.952 -26.126  0.00  0.00    -0.366 N 
ATOM     13  C17 <0> d          11.449  51.034 -26.185  0.00  0.00     0.091 A 
BRANCH  12  14
ATOM     14  C7  <0> d          11.147  48.693 -25.584  0.00  0.00     0.128 C 
BRANCH  14  15
ATOM     15  C6  <0> d          11.358  47.695 -26.724  0.00  0.00     0.020 C 
BRANCH  15  16
ATOM     16  C5  <0> d          12.856  47.462 -26.927  0.00  0.00     0.002 C 
BRANCH  16  17
ATOM     17  C4  <0> d          13.229  47.776 -28.378  0.00  0.00     0.000 C 
BRANCH  17  18
ATOM     18  C3  <0> d          12.040  48.436 -29.079  0.00  0.00    -0.000 C 
BRANCH  18  19
ATOM     19  C2  <0> d          12.421  49.856 -29.504  0.00  0.00    -0.005 C 
ATOM     20  C1  <0> d          11.203  50.549 -30.117  0.00  0.00     0.005 C 
ENDBRANCH  18  19
ENDBRANCH  17  18
ENDBRANCH  16  17
ENDBRANCH  15  16
ENDBRANCH  14  15
ENDBRANCH  12  14
ENDBRANCH   1   7
TORSDOF 7
ENDMDL
MODEL 5
REMARK VINA RESULT:      -5.2     41.940     44.437
REMARK  7 active torsions:
REMARK  status: ('A' for Active; 'I' for Inactive)
REMARK    1  A    between atoms: C2_2  and  C3_3 
REMARK    2  A    between atoms: C3_3  and  C4_4 
REMARK    3  A    between atoms: C4_4  and  C5_5 
REMARK    4  A    between atoms: C5_5  and  C6_6 
REMARK    5  A    between atoms: C6_6  and  C7_7 
REMARK    6  A    between atoms: C7_7  and  N1_8 
REMARK    7  A    between atoms: C11_12  and  C12_13 
ROOT
ATOM      1  C12 <0> d          12.339  47.310 -27.861  0.00  0.00     0.035 C 
ATOM      2  C13 <0> d          12.979  47.412 -29.110  0.00  0.00     0.124 C 
ATOM      3  C14 <0> d          13.710  48.596 -29.446  0.00  0.00     0.110 C 
ATOM      4  N2  <0> d          14.289  49.537 -29.713  0.00  0.00    -0.191 NA
ATOM      5  C15 <0> d          12.901  46.330 -30.045  0.00  0.00     0.110 C 
ATOM      6  N3  <0> d          12.837  45.472 -30.787  0.00  0.00    -0.191 NA
ENDROOT
BRANCH   1   7
ATOM      7  C11 <0> d          12.414  48.340 -26.970  0.00  0.00     0.013 C 
ATOM      8  C10 <0> d          11.312  49.204 -26.794  0.00  0.00    -0.034 A 
ATOM      9  C9  <0> d          11.374  50.273 -25.870  0.00  0.00     0.028 A 
ATOM     10  C16 <0> d          10.125  49.020 -27.542  0.00  0.00     0.028 A 
ATOM     11  C8  <0> d          10.300  51.083 -25.724  0.00  0.00     0.091 A 
ATOM     12  N1  <0> d           9.174  50.878 -26.453  0.00  0.00    -0.366 N 
ATOM     13  C17 <0> d           9.085  49.861 -27.347  0.00  0.00     0.091 A 
BRANCH  12  14
ATOM     14  C7  <0> d           8.030  51.774 -26.271  0.00  0.00     0.128 C 
BRANCH  14  15
ATOM     15  C6  <0> d           8.506  53.228 -26.323  0.00  0.00     0.020 C 
BRANCH  15  16
ATOM     16  C5  <0> d           8.594  53.684 -27.780  0.00  0.00     0.002 C 
BRANCH  16  17
ATOM     17  C4  <0> d           9.137  55.113 -27.836  0.00  0.00     0.000 C 
BRANCH  17  18
ATOM     18  C3  <0> d          10.599  55.086 -28.286  0.00  0.00    -0.000 C 
BRANCH  18  19
ATOM     19  C2  <0> d          11.268  56.416 -27.932  0.00  0.00    -0.005 C 
ATOM     20  C1  <0> d          10.302  57.566 -28.226  0.00  0.00     0.005 C 
ENDBRANCH  18  19
ENDBRANCH  17  18
ENDBRANCH  16  17
ENDBRANCH  15  16
ENDBRANCH  14  15
ENDBRANCH  12  14
ENDBRANCH   1   7
TORSDOF 7
ENDMDL
MODEL 6
REMARK VINA RESULT:      -5.1     16.414     19.534
REMARK  7 active torsions:
REMARK  status: ('A' for Active; 'I' for Inactive)
REMARK    1  A    between atoms: C2_2  and  C3_3 
REMARK    2  A    between atoms: C3_3  and  C4_4 
REMARK    3  A    between atoms: C4_4  and  C5_5 
REMARK    4  A    between atoms: C5_5  and  C6_6 
REMARK    5  A    between atoms: C6_6  and  C7_7 
REMARK    6  A    between atoms: C7_7  and  N1_8 
REMARK    7  A    between atoms: C11_12  and  C12_13 
ROOT
ATOM      1  C12 <0> d          31.578  70.302 -21.247  0.00  0.00     0.035 C 
ATOM      2  C13 <0> d          32.456  70.986 -22.108  0.00  0.00     0.124 C 
ATOM      3  C14 <0> d          32.515  72.417 -22.082  0.00  0.00     0.110 C 
ATOM      4  N2  <0> d          32.561  73.552 -22.062  0.00  0.00    -0.191 NA
ATOM      5  C15 <0> d          33.291  70.252 -23.011  0.00  0.00     0.110 C 
ATOM      6  N3  <0> d          33.952  69.669 -23.728  0.00  0.00    -0.191 NA
ENDROOT
BRANCH   1   7
ATOM      7  C11 <0> d          30.783  71.002 -20.387  0.00  0.00     0.013 C 
ATOM      8  C10 <0> d          29.393  71.074 -20.611  0.00  0.00    -0.034 A 
ATOM      9  C9  <0> d          28.555  71.791 -19.724  0.00  0.00     0.028 A 
ATOM     10  C16 <0> d          28.807  70.434 -21.728  0.00  0.00     0.028 A 
ATOM     11  C8  <0> d          27.225  71.841 -19.966  0.00  0.00     0.091 A 
ATOM     12  N1  <0> d          26.693  71.212 -21.045  0.00  0.00    -0.366 N 
ATOM     13  C17 <0> d          27.470  70.516 -21.913  0.00  0.00     0.091 A 
BRANCH  12  14
ATOM     14  C7  <0> d          25.249  71.286 -21.277  0.00  0.00     0.128 C 
BRANCH  14  15
ATOM     15  C6  <0> d          24.802  70.077 -22.102  0.00  0.00     0.020 C 
BRANCH  15  16
ATOM     16  C5  <0> d          24.072  69.084 -21.197  0.00  0.00     0.002 C 
BRANCH  16  17
ATOM     17  C4  <0> d          24.723  69.081 -19.813  0.00  0.00     0.000 C 
BRANCH  17  18
ATOM     18  C3  <0> d          24.708  67.662 -19.243  0.00  0.00    -0.000 C 
BRANCH  18  19
ATOM     19  C2  <0> d          26.114  67.063 -19.323  0.00  0.00    -0.005 C 
ATOM     20  C1  <0> d          27.151  68.166 -19.099  0.00  0.00     0.005 C 
ENDBRANCH  18  19
ENDBRANCH  17  18
ENDBRANCH  16  17
ENDBRANCH  15  16
ENDBRANCH  14  15
ENDBRANCH  12  14
ENDBRANCH   1   7
TORSDOF 7
ENDMDL
MODEL 7
REMARK VINA RESULT:      -5.0      5.007     10.497
REMARK  7 active torsions:
REMARK  status: ('A' for Active; 'I' for Inactive)
REMARK    1  A    between atoms: C2_2  and  C3_3 
REMARK    2  A    between atoms: C3_3  and  C4_4 
REMARK    3  A    between atoms: C4_4  and  C5_5 
REMARK    4  A    between atoms: C5_5  and  C6_6 
REMARK    5  A    between atoms: C6_6  and  C7_7 
REMARK    6  A    between atoms: C7_7  and  N1_8 
REMARK    7  A    between atoms: C11_12  and  C12_13 
ROOT
ATOM      1  C12 <0> d          32.278  88.901 -14.793  0.00  0.00     0.035 C 
ATOM      2  C13 <0> d          32.865  88.567 -16.027  0.00  0.00     0.124 C 
ATOM      3  C14 <0> d          33.343  87.236 -16.257  0.00  0.00     0.110 C 
ATOM      4  N2  <0> d          33.722  86.181 -16.438  0.00  0.00    -0.191 NA
ATOM      5  C15 <0> d          32.987  89.557 -17.055  0.00  0.00     0.110 C 
ATOM      6  N3  <0> d          33.083  90.344 -17.869  0.00  0.00    -0.191 NA
ENDROOT
BRANCH   1   7
ATOM      7  C11 <0> d          32.162  87.957 -13.815  0.00  0.00     0.013 C 
ATOM      8  C10 <0> d          32.361  88.313 -12.464  0.00  0.00    -0.034 A 
ATOM      9  C9  <0> d          32.239  87.346 -11.438  0.00  0.00     0.028 A 
ATOM     10  C16 <0> d          32.690  89.641 -12.109  0.00  0.00     0.028 A 
ATOM     11  C8  <0> d          32.435  87.718 -10.153  0.00  0.00     0.091 A 
ATOM     12  N1  <0> d          32.746  89.002  -9.843  0.00  0.00    -0.366 N 
ATOM     13  C17 <0> d          32.869  89.952 -10.805  0.00  0.00     0.091 A 
BRANCH  12  14
ATOM     14  C7  <0> d          32.952  89.372  -8.441  0.00  0.00     0.128 C 
BRANCH  14  15
ATOM     15  C6  <0> d          33.845  88.330  -7.765  0.00  0.00     0.020 C 
BRANCH  15  16
ATOM     16  C5  <0> d          33.479  88.229  -6.283  0.00  0.00     0.002 C 
BRANCH  16  17
ATOM     17  C4  <0> d          32.936  89.575  -5.799  0.00  0.00     0.000 C 
BRANCH  17  18
ATOM     18  C3  <0> d          33.903  90.179  -4.779  0.00  0.00    -0.000 C 
BRANCH  18  19
ATOM     19  C2  <0> d          35.193  90.603  -5.486  0.00  0.00    -0.005 C 
ATOM     20  C1  <0> d          36.326  90.704  -4.463  0.00  0.00     0.005 C 
ENDBRANCH  18  19
ENDBRANCH  17  18
ENDBRANCH  16  17
ENDBRANCH  15  16
ENDBRANCH  14  15
ENDBRANCH  12  14
ENDBRANCH   1   7
TORSDOF 7
ENDMDL
MODEL 8
REMARK VINA RESULT:      -5.0     28.619     32.159
REMARK  7 active torsions:
REMARK  status: ('A' for Active; 'I' for Inactive)
REMARK    1  A    between atoms: C2_2  and  C3_3 
REMARK    2  A    between atoms: C3_3  and  C4_4 
REMARK    3  A    between atoms: C4_4  and  C5_5 
REMARK    4  A    between atoms: C5_5  and  C6_6 
REMARK    5  A    between atoms: C6_6  and  C7_7 
REMARK    6  A    between atoms: C7_7  and  N1_8 
REMARK    7  A    between atoms: C11_12  and  C12_13 
ROOT
ATOM      1  C12 <0> d           9.147  64.664 -12.565  0.00  0.00     0.035 C 
ATOM      2  C13 <0> d           8.250  65.364 -13.394  0.00  0.00     0.124 C 
ATOM      3  C14 <0> d           7.459  66.430 -12.856  0.00  0.00     0.110 C 
ATOM      4  N2  <0> d           6.832  67.275 -12.429  0.00  0.00    -0.191 NA
ATOM      5  C15 <0> d           8.127  65.010 -14.777  0.00  0.00     0.110 C 
ATOM      6  N3  <0> d           8.030  64.728 -15.873  0.00  0.00    -0.191 NA
ENDROOT
BRANCH   1   7
ATOM      7  C11 <0> d           9.263  65.002 -11.249  0.00  0.00     0.013 C 
ATOM      8  C10 <0> d          10.541  65.127 -10.663  0.00  0.00    -0.034 A 
ATOM      9  C9  <0> d          10.678  65.482  -9.301  0.00  0.00     0.028 A 
ATOM     10  C16 <0> d          11.710  64.895 -11.425  0.00  0.00     0.028 A 
ATOM     11  C8  <0> d          11.917  65.594  -8.768  0.00  0.00     0.091 A 
ATOM     12  N1  <0> d          13.019  65.370  -9.527  0.00  0.00    -0.366 N 
ATOM     13  C17 <0> d          12.920  65.028 -10.837  0.00  0.00     0.091 A 
BRANCH  12  14
ATOM     14  C7  <0> d          14.345  65.499  -8.919  0.00  0.00     0.128 C 
BRANCH  14  15
ATOM     15  C6  <0> d          14.709  64.197  -8.203  0.00  0.00     0.020 C 
BRANCH  15  16
ATOM     16  C5  <0> d          15.672  63.388  -9.074  0.00  0.00     0.002 C 
BRANCH  16  17
ATOM     17  C4  <0> d          16.640  64.338  -9.782  0.00  0.00     0.000 C 
BRANCH  17  18
ATOM     18  C3  <0> d          17.925  64.463  -8.961  0.00  0.00    -0.000 C 
BRANCH  18  19
ATOM     19  C2  <0> d          18.991  65.185  -9.788  0.00  0.00    -0.005 C 
ATOM     20  C1  <0> d          20.211  64.277  -9.951  0.00  0.00     0.005 C 
ENDBRANCH  18  19
ENDBRANCH  17  18
ENDBRANCH  16  17
ENDBRANCH  15  16
ENDBRANCH  14  15
ENDBRANCH  12  14
ENDBRANCH   1   7
TORSDOF 7
ENDMDL
MODEL 9
REMARK VINA RESULT:      -5.0     31.490     33.493
REMARK  7 active torsions:
REMARK  status: ('A' for Active; 'I' for Inactive)
REMARK    1  A    between atoms: C2_2  and  C3_3 
REMARK    2  A    between atoms: C3_3  and  C4_4 
REMARK    3  A    between atoms: C4_4  and  C5_5 
REMARK    4  A    between atoms: C5_5  and  C6_6 
REMARK    5  A    between atoms: C6_6  and  C7_7 
REMARK    6  A    between atoms: C7_7  and  N1_8 
REMARK    7  A    between atoms: C11_12  and  C12_13 
ROOT
ATOM      1  C12 <0> d          32.180  57.091  -7.409  0.00  0.00     0.035 C 
ATOM      2  C13 <0> d          33.086  56.907  -6.348  0.00  0.00     0.124 C 
ATOM      3  C14 <0> d          33.132  57.853  -5.274  0.00  0.00     0.110 C 
ATOM      4  N2  <0> d          33.167  58.604  -4.421  0.00  0.00    -0.191 NA
ATOM      5  C15 <0> d          33.964  55.776  -6.342  0.00  0.00     0.110 C 
ATOM      6  N3  <0> d          34.660  54.877  -6.338  0.00  0.00    -0.191 NA
ENDROOT
BRANCH   1   7
ATOM      7  C11 <0> d          31.344  58.168  -7.414  0.00  0.00     0.013 C 
ATOM      8  C10 <0> d          29.959  57.987  -7.217  0.00  0.00    -0.034 A 
ATOM      9  C9  <0> d          29.080  59.096  -7.214  0.00  0.00     0.028 A 
ATOM     10  C16 <0> d          29.420  56.694  -7.023  0.00  0.00     0.028 A 
ATOM     11  C8  <0> d          27.757  58.891  -7.022  0.00  0.00     0.091 A 
ATOM     12  N1  <0> d          27.271  57.637  -6.834  0.00  0.00    -0.366 N 
ATOM     13  C17 <0> d          28.089  56.554  -6.831  0.00  0.00     0.091 A 
BRANCH  12  14
ATOM     14  C7  <0> d          25.834  57.450  -6.629  0.00  0.00     0.128 C 
BRANCH  14  15
ATOM     15  C6  <0> d          25.600  56.660  -5.339  0.00  0.00     0.020 C 
BRANCH  15  16
ATOM     16  C5  <0> d          25.663  57.610  -4.141  0.00  0.00     0.002 C 
BRANCH  16  17
ATOM     17  C4  <0> d          26.909  57.301  -3.310  0.00  0.00     0.000 C 
BRANCH  17  18
ATOM     18  C3  <0> d          27.846  58.510  -3.325  0.00  0.00    -0.000 C 
BRANCH  18  19
ATOM     19  C2  <0> d          29.289  58.036  -3.515  0.00  0.00    -0.005 C 
ATOM     20  C1  <0> d          30.206  58.800  -2.557  0.00  0.00     0.005 C 
ENDBRANCH  18  19
ENDBRANCH  17  18
ENDBRANCH  16  17
ENDBRANCH  15  16
ENDBRANCH  14  15
ENDBRANCH  12  14
ENDBRANCH   1   7
TORSDOF 7
ENDMDL
MODEL 10
REMARK VINA RESULT:      -4.9      2.165      7.468
REMARK  7 active torsions:
REMARK  status: ('A' for Active; 'I' for Inactive)
REMARK    1  A    between atoms: C2_2  and  C3_3 
REMARK    2  A    between atoms: C3_3  and  C4_4 
REMARK    3  A    between atoms: C4_4  and  C5_5 
REMARK    4  A    between atoms: C5_5  and  C6_6 
REMARK    5  A    between atoms: C6_6  and  C7_7 
REMARK    6  A    between atoms: C7_7  and  N1_8 
REMARK    7  A    between atoms: C11_12  and  C12_13 
ROOT
ATOM      1  C12 <0> d          33.574  88.824 -20.640  0.00  0.00     0.035 C 
ATOM      2  C13 <0> d          34.121  89.606 -21.675  0.00  0.00     0.124 C 
ATOM      3  C14 <0> d          33.601  89.498 -23.005  0.00  0.00     0.110 C 
ATOM      4  N2  <0> d          33.189  89.413 -24.060  0.00  0.00    -0.191 NA
ATOM      5  C15 <0> d          35.197  90.509 -21.399  0.00  0.00     0.110 C 
ATOM      6  N3  <0> d          36.052  91.225 -21.178  0.00  0.00    -0.191 NA
ENDROOT
BRANCH   1   7
ATOM      7  C11 <0> d          32.548  87.964 -20.904  0.00  0.00     0.013 C 
ATOM      8  C10 <0> d          31.895  87.299 -19.845  0.00  0.00    -0.034 A 
ATOM      9  C9  <0> d          30.826  86.409 -20.103  0.00  0.00     0.028 A 
ATOM     10  C16 <0> d          32.299  87.505 -18.505  0.00  0.00     0.028 A 
ATOM     11  C8  <0> d          30.219  85.787 -19.066  0.00  0.00     0.091 A 
ATOM     12  N1  <0> d          30.627  86.009 -17.791  0.00  0.00    -0.366 N 
ATOM     13  C17 <0> d          31.649  86.857 -17.512  0.00  0.00     0.091 A 
BRANCH  12  14
ATOM     14  C7  <0> d          29.949  85.319 -16.692  0.00  0.00     0.128 C 
BRANCH  14  15
ATOM     15  C6  <0> d          30.116  86.125 -15.402  0.00  0.00     0.020 C 
BRANCH  15  16
ATOM     16  C5  <0> d          30.952  85.323 -14.403  0.00  0.00     0.002 C 
BRANCH  16  17
ATOM     17  C4  <0> d          32.177  86.141 -13.990  0.00  0.00     0.000 C 
BRANCH  17  18
ATOM     18  C3  <0> d          31.742  87.287 -13.075  0.00  0.00    -0.000 C 
BRANCH  18  19
ATOM     19  C2  <0> d          32.449  88.576 -13.499  0.00  0.00    -0.005 C 
ATOM     20  C1  <0> d          32.394  89.588 -12.353  0.00  0.00     0.005 C 
ENDBRANCH  18  19
ENDBRANCH  17  18
ENDBRANCH  16  17
ENDBRANCH  15  16
ENDBRANCH  14  15
ENDBRANCH  12  14
ENDBRANCH   1   7
TORSDOF 7
ENDMDL
