MODEL 1
REMARK VINA RESULT:      -7.0      0.000      0.000
REMARK  4 active torsions:
REMARK  status: ('A' for Active; 'I' for Inactive)
REMARK    1  A    between atoms: C2_2  and  C3_3 
REMARK    2  A    between atoms: C3_3  and  N1_4 
REMARK    3  A    between atoms: C6_8  and  C7_9 
REMARK    4  A    between atoms: N2_13  and  C11_14 
ROOT
ATOM      1  C7  <0> d          31.336  69.699 -22.833  0.00  0.00     0.040 A 
ATOM      2  C8  <0> d          32.577  69.089 -22.789  0.00  0.00     0.031 A 
ATOM      3  C9  <0> d          32.479  67.903 -23.525  0.00  0.00     0.020 A 
ATOM      4  C10 <0> d          31.211  67.805 -23.992  0.00  0.00     0.097 A 
ATOM      5  N2  <0> d          30.506  68.893 -23.584  0.00  0.00    -0.322 N 
ENDROOT
BRANCH   1   6
ATOM      6  C6  <0> d          30.983  70.925 -22.221  0.00  0.00     0.054 C 
ATOM      7  C5  <0> d          30.648  70.955 -20.900  0.00  0.00     0.080 A 
ATOM      8  C4  <0> d          30.472  69.876 -19.983  0.00  0.00     0.268 A 
ATOM      9  S1  <0> d          30.318  72.359 -19.844  0.00  0.00    -0.023 SA
ATOM     10  N1  <0> d          30.142  70.169 -18.736  0.00  0.00    -0.271 N 
ATOM     11  O1  <0> d          30.620  68.721 -20.337  0.00  0.00    -0.266 OA
ATOM     12  C17 <0> d          29.977  71.452 -18.343  0.00  0.00     0.294 A 
ATOM     13  O2  <0> d          29.678  71.880 -17.244  0.00  0.00    -0.259 OA
BRANCH  10  14
ATOM     14  C3  <0> d          29.953  69.087 -17.766  0.00  0.00     0.162 C 
BRANCH  14  15
ATOM     15  C2  <0> d          31.261  68.796 -17.077  0.00  0.00    -0.017 C 
ATOM     16  C1  <0> d          31.318  68.758 -15.769  0.00  0.00     0.008 C 
ENDBRANCH  14  15
ENDBRANCH  10  14
ENDBRANCH   1   6
BRANCH   5  17
ATOM     17  C11 <0> d          29.159  69.150 -23.873  0.00  0.00     0.039 A 
ATOM     18  C16 <0> d          28.778  69.497 -25.162  0.00  0.00     0.031 A 
ATOM     19  C15 <0> d          27.450  69.752 -25.443  0.00  0.00     0.020 A 
ATOM     20  C14 <0> d          26.499  69.662 -24.442  0.00  0.00     0.006 A 
ATOM     21  C13 <0> d          26.876  69.315 -23.157  0.00  0.00     0.020 A 
ATOM     22  I1  <0> d          24.485  70.039 -24.875  0.00  0.00    -0.045 I 
ATOM     23  C12 <0> d          28.203  69.060 -22.870  0.00  0.00     0.031 A 
ENDBRANCH   5  17
TORSDOF 4
ENDMDL
MODEL 2
REMARK VINA RESULT:      -6.3      3.778      7.045
REMARK  4 active torsions:
REMARK  status: ('A' for Active; 'I' for Inactive)
REMARK    1  A    between atoms: C2_2  and  C3_3 
REMARK    2  A    between atoms: C3_3  and  N1_4 
REMARK    3  A    between atoms: C6_8  and  C7_9 
REMARK    4  A    between atoms: N2_13  and  C11_14 
ROOT
ATOM      1  C7  <0> d          29.576  68.482 -23.656  0.00  0.00     0.040 A 
ATOM      2  C8  <0> d          30.044  67.570 -24.585  0.00  0.00     0.031 A 
ATOM      3  C9  <0> d          31.439  67.555 -24.480  0.00  0.00     0.020 A 
ATOM      4  C10 <0> d          31.795  68.439 -23.517  0.00  0.00     0.097 A 
ATOM      5  N2  <0> d          30.671  69.007 -23.003  0.00  0.00    -0.322 N 
ENDROOT
BRANCH   1   6
ATOM      6  C6  <0> d          28.221  68.816 -23.420  0.00  0.00     0.054 C 
ATOM      7  C5  <0> d          27.499  69.455 -24.383  0.00  0.00     0.080 A 
ATOM      8  C4  <0> d          27.926  69.984 -25.638  0.00  0.00     0.268 A 
ATOM      9  S1  <0> d          25.756  69.853 -24.420  0.00  0.00    -0.023 SA
ATOM     10  N1  <0> d          27.021  70.567 -26.405  0.00  0.00    -0.271 N 
ATOM     11  O1  <0> d          29.088  69.901 -25.991  0.00  0.00    -0.266 OA
ATOM     12  C17 <0> d          25.731  70.659 -26.013  0.00  0.00     0.294 A 
ATOM     13  O2  <0> d          24.790  71.160 -26.600  0.00  0.00    -0.259 OA
BRANCH  10  14
ATOM     14  C3  <0> d          27.423  71.122 -27.701  0.00  0.00     0.162 C 
BRANCH  14  15
ATOM     15  C2  <0> d          26.997  70.186 -28.803  0.00  0.00    -0.017 C 
ATOM     16  C1  <0> d          27.743  70.047 -29.870  0.00  0.00     0.008 C 
ENDBRANCH  14  15
ENDBRANCH  10  14
ENDBRANCH   1   6
BRANCH   5  17
ATOM     17  C11 <0> d          30.632  69.969 -21.985  0.00  0.00     0.039 A 
ATOM     18  C16 <0> d          30.503  71.314 -22.303  0.00  0.00     0.031 A 
ATOM     19  C15 <0> d          30.467  72.260 -21.297  0.00  0.00     0.020 A 
ATOM     20  C14 <0> d          30.559  71.868 -19.973  0.00  0.00     0.006 A 
ATOM     21  C13 <0> d          30.686  70.528 -19.653  0.00  0.00     0.020 A 
ATOM     22  I1  <0> d          30.493  73.305 -18.451  0.00  0.00    -0.045 I 
ATOM     23  C12 <0> d          30.724  69.578 -20.655  0.00  0.00     0.031 A 
ENDBRANCH   5  17
TORSDOF 4
ENDMDL
MODEL 3
REMARK VINA RESULT:      -6.3      3.449      6.452
REMARK  4 active torsions:
REMARK  status: ('A' for Active; 'I' for Inactive)
REMARK    1  A    between atoms: C2_2  and  C3_3 
REMARK    2  A    between atoms: C3_3  and  N1_4 
REMARK    3  A    between atoms: C6_8  and  C7_9 
REMARK    4  A    between atoms: N2_13  and  C11_14 
ROOT
ATOM      1  C7  <0> d          27.848  69.810 -21.202  0.00  0.00     0.040 A 
ATOM      2  C8  <0> d          27.059  68.917 -20.499  0.00  0.00     0.031 A 
ATOM      3  C9  <0> d          27.734  68.618 -19.311  0.00  0.00     0.020 A 
ATOM      4  C10 <0> d          28.898  69.311 -19.307  0.00  0.00     0.097 A 
ATOM      5  N2  <0> d          28.979  70.045 -20.448  0.00  0.00    -0.322 N 
ENDROOT
BRANCH   1   6
ATOM      6  C6  <0> d          27.548  70.379 -22.462  0.00  0.00     0.054 C 
ATOM      7  C5  <0> d          27.938  69.747 -23.606  0.00  0.00     0.080 A 
ATOM      8  C4  <0> d          28.747  68.582 -23.769  0.00  0.00     0.268 A 
ATOM      9  S1  <0> d          27.567  70.146 -25.308  0.00  0.00    -0.023 SA
ATOM     10  N1  <0> d          28.985  68.160 -24.998  0.00  0.00    -0.271 N 
ATOM     11  O1  <0> d          29.204  67.996 -22.805  0.00  0.00    -0.266 OA
ATOM     12  C17 <0> d          28.477  68.810 -26.068  0.00  0.00     0.294 A 
ATOM     13  O2  <0> d          28.604  68.549 -27.250  0.00  0.00    -0.259 OA
BRANCH  10  14
ATOM     14  C3  <0> d          29.811  66.967 -25.204  0.00  0.00     0.162 C 
BRANCH  14  15
ATOM     15  C2  <0> d          31.254  67.376 -25.361  0.00  0.00    -0.017 C 
ATOM     16  C1  <0> d          32.063  67.331 -24.332  0.00  0.00     0.008 C 
ENDBRANCH  14  15
ENDBRANCH  10  14
ENDBRANCH   1   6
BRANCH   5  17
ATOM     17  C11 <0> d          30.036  70.894 -20.803  0.00  0.00     0.039 A 
ATOM     18  C16 <0> d          30.067  72.200 -20.333  0.00  0.00     0.031 A 
ATOM     19  C15 <0> d          31.109  73.034 -20.686  0.00  0.00     0.020 A 
ATOM     20  C14 <0> d          32.122  72.570 -21.506  0.00  0.00     0.006 A 
ATOM     21  C13 <0> d          32.094  71.269 -21.975  0.00  0.00     0.020 A 
ATOM     22  I1  <0> d          33.706  73.836 -22.031  0.00  0.00    -0.045 I 
ATOM     23  C12 <0> d          31.053  70.430 -21.626  0.00  0.00     0.031 A 
ENDBRANCH   5  17
TORSDOF 4
ENDMDL
MODEL 4
REMARK VINA RESULT:      -6.3      4.412      7.686
REMARK  4 active torsions:
REMARK  status: ('A' for Active; 'I' for Inactive)
REMARK    1  A    between atoms: C2_2  and  C3_3 
REMARK    2  A    between atoms: C3_3  and  N1_4 
REMARK    3  A    between atoms: C6_8  and  C7_9 
REMARK    4  A    between atoms: N2_13  and  C11_14 
ROOT
ATOM      1  C7  <0> d          25.995  70.665 -23.332  0.00  0.00     0.040 A 
ATOM      2  C8  <0> d          24.690  70.320 -23.028  0.00  0.00     0.031 A 
ATOM      3  C9  <0> d          24.746  69.302 -22.071  0.00  0.00     0.020 A 
ATOM      4  C10 <0> d          26.051  69.041 -21.814  0.00  0.00     0.097 A 
ATOM      5  N2  <0> d          26.822  69.867 -22.570  0.00  0.00    -0.322 N 
ENDROOT
BRANCH   1   6
ATOM      6  C6  <0> d          26.406  71.655 -24.256  0.00  0.00     0.054 C 
ATOM      7  C5  <0> d          26.536  71.344 -25.577  0.00  0.00     0.080 A 
ATOM      8  C4  <0> d          26.427  70.077 -26.226  0.00  0.00     0.268 A 
ATOM      9  S1  <0> d          26.879  72.412 -26.968  0.00  0.00    -0.023 SA
ATOM     10  N1  <0> d          26.597  70.035 -27.536  0.00  0.00    -0.271 N 
ATOM     11  O1  <0> d          26.187  69.066 -25.592  0.00  0.00    -0.266 OA
ATOM     12  C17 <0> d          26.865  71.158 -28.239  0.00  0.00     0.294 A 
ATOM     13  O2  <0> d          27.045  71.283 -29.436  0.00  0.00    -0.259 OA
BRANCH  10  14
ATOM     14  C3  <0> d          26.493  68.753 -28.237  0.00  0.00     0.162 C 
BRANCH  14  15
ATOM     15  C2  <0> d          27.852  68.346 -28.745  0.00  0.00    -0.017 C 
ATOM     16  C1  <0> d          28.655  67.646 -27.983  0.00  0.00     0.008 C 
ENDBRANCH  14  15
ENDBRANCH  10  14
ENDBRANCH   1   6
BRANCH   5  17
ATOM     17  C11 <0> d          28.223  69.898 -22.578  0.00  0.00     0.039 A 
ATOM     18  C16 <0> d          28.933  69.065 -23.433  0.00  0.00     0.031 A 
ATOM     19  C15 <0> d          30.313  69.097 -23.437  0.00  0.00     0.020 A 
ATOM     20  C14 <0> d          30.990  69.958 -22.592  0.00  0.00     0.006 A 
ATOM     21  C13 <0> d          30.285  70.791 -21.741  0.00  0.00     0.020 A 
ATOM     22  I1  <0> d          33.084  70.010 -22.609  0.00  0.00    -0.045 I 
ATOM     23  C12 <0> d          28.904  70.762 -21.731  0.00  0.00     0.031 A 
ENDBRANCH   5  17
TORSDOF 4
ENDMDL
MODEL 5
REMARK VINA RESULT:      -6.2      3.097      6.501
REMARK  4 active torsions:
REMARK  status: ('A' for Active; 'I' for Inactive)
REMARK    1  A    between atoms: C2_2  and  C3_3 
REMARK    2  A    between atoms: C3_3  and  N1_4 
REMARK    3  A    between atoms: C6_8  and  C7_9 
REMARK    4  A    between atoms: N2_13  and  C11_14 
ROOT
ATOM      1  C7  <0> d          29.520  69.874 -18.402  0.00  0.00     0.040 A 
ATOM      2  C8  <0> d          29.851  68.605 -17.964  0.00  0.00     0.031 A 
ATOM      3  C9  <0> d          30.891  68.746 -17.040  0.00  0.00     0.020 A 
ATOM      4  C10 <0> d          31.177  70.066 -16.932  0.00  0.00     0.097 A 
ATOM      5  N2  <0> d          30.348  70.765 -17.751  0.00  0.00    -0.322 N 
ENDROOT
BRANCH   1   6
ATOM      6  C6  <0> d          28.516  70.200 -19.345  0.00  0.00     0.054 C 
ATOM      7  C5  <0> d          28.790  70.143 -20.679  0.00  0.00     0.080 A 
ATOM      8  C4  <0> d          30.031  69.901 -21.342  0.00  0.00     0.268 A 
ATOM      9  S1  <0> d          27.691  70.344 -22.075  0.00  0.00    -0.023 SA
ATOM     10  N1  <0> d          30.037  69.896 -22.664  0.00  0.00    -0.271 N 
ATOM     11  O1  <0> d          31.052  69.705 -20.710  0.00  0.00    -0.266 OA
ATOM     12  C17 <0> d          28.903  70.113 -23.366  0.00  0.00     0.294 A 
ATOM     13  O2  <0> d          28.747  70.140 -24.573  0.00  0.00    -0.259 OA
BRANCH  10  14
ATOM     14  C3  <0> d          31.292  69.651 -23.379  0.00  0.00     0.162 C 
BRANCH  14  15
ATOM     15  C2  <0> d          31.378  68.196 -23.762  0.00  0.00    -0.017 C 
ATOM     16  C1  <0> d          32.536  67.585 -23.759  0.00  0.00     0.008 C 
ENDBRANCH  14  15
ENDBRANCH  10  14
ENDBRANCH   1   6
BRANCH   5  17
ATOM     17  C11 <0> d          30.338  72.157 -17.912  0.00  0.00     0.039 A 
ATOM     18  C16 <0> d          31.012  72.739 -18.978  0.00  0.00     0.031 A 
ATOM     19  C15 <0> d          31.002  74.111 -19.133  0.00  0.00     0.020 A 
ATOM     20  C14 <0> d          30.322  74.906 -18.228  0.00  0.00     0.006 A 
ATOM     21  C13 <0> d          29.648  74.329 -17.167  0.00  0.00     0.020 A 
ATOM     22  I1  <0> d          30.301  76.986 -18.473  0.00  0.00    -0.045 I 
ATOM     23  C12 <0> d          29.655  72.957 -17.006  0.00  0.00     0.031 A 
ENDBRANCH   5  17
TORSDOF 4
ENDMDL
MODEL 6
REMARK VINA RESULT:      -6.2      6.341      9.082
REMARK  4 active torsions:
REMARK  status: ('A' for Active; 'I' for Inactive)
REMARK    1  A    between atoms: C2_2  and  C3_3 
REMARK    2  A    between atoms: C3_3  and  N1_4 
REMARK    3  A    between atoms: C6_8  and  C7_9 
REMARK    4  A    between atoms: N2_13  and  C11_14 
ROOT
ATOM      1  C7  <0> d          26.769  70.964 -28.080  0.00  0.00     0.040 A 
ATOM      2  C8  <0> d          27.247  70.650 -29.341  0.00  0.00     0.031 A 
ATOM      3  C9  <0> d          27.539  69.282 -29.341  0.00  0.00     0.020 A 
ATOM      4  C10 <0> d          27.249  68.793 -28.112  0.00  0.00     0.097 A 
ATOM      5  N2  <0> d          26.774  69.803 -27.336  0.00  0.00    -0.322 N 
ENDROOT
BRANCH   1   6
ATOM      6  C6  <0> d          26.352  72.241 -27.637  0.00  0.00     0.054 C 
ATOM      7  C5  <0> d          25.033  72.582 -27.687  0.00  0.00     0.080 A 
ATOM      8  C4  <0> d          23.931  71.869 -28.248  0.00  0.00     0.268 A 
ATOM      9  S1  <0> d          24.212  74.042 -27.061  0.00  0.00    -0.023 SA
ATOM     10  N1  <0> d          22.732  72.419 -28.169  0.00  0.00    -0.271 N 
ATOM     11  O1  <0> d          24.091  70.788 -28.783  0.00  0.00    -0.266 OA
ATOM     12  C17 <0> d          22.555  73.620 -27.574  0.00  0.00     0.294 A 
ATOM     13  O2  <0> d          21.525  74.251 -27.423  0.00  0.00    -0.259 OA
BRANCH  10  14
ATOM     14  C3  <0> d          21.576  71.716 -28.733  0.00  0.00     0.162 C 
BRANCH  14  15
ATOM     15  C2  <0> d          20.841  70.994 -27.634  0.00  0.00    -0.017 C 
ATOM     16  C1  <0> d          21.055  69.718 -27.430  0.00  0.00     0.008 C 
ENDBRANCH  14  15
ENDBRANCH  10  14
ENDBRANCH   1   6
BRANCH   5  17
ATOM     17  C11 <0> d          26.364  69.687 -26.001  0.00  0.00     0.039 A 
ATOM     18  C16 <0> d          27.282  69.863 -24.973  0.00  0.00     0.031 A 
ATOM     19  C15 <0> d          26.875  69.746 -23.659  0.00  0.00     0.020 A 
ATOM     20  C14 <0> d          25.555  69.454 -23.365  0.00  0.00     0.006 A 
ATOM     21  C13 <0> d          24.639  69.279 -24.386  0.00  0.00     0.020 A 
ATOM     22  I1  <0> d          24.941  69.287 -21.369  0.00  0.00    -0.045 I 
ATOM     23  C12 <0> d          25.040  69.393 -25.703  0.00  0.00     0.031 A 
ENDBRANCH   5  17
TORSDOF 4
ENDMDL
MODEL 7
REMARK VINA RESULT:      -5.8     17.950     20.108
REMARK  4 active torsions:
REMARK  status: ('A' for Active; 'I' for Inactive)
REMARK    1  A    between atoms: C2_2  and  C3_3 
REMARK    2  A    between atoms: C3_3  and  N1_4 
REMARK    3  A    between atoms: C6_8  and  C7_9 
REMARK    4  A    between atoms: N2_13  and  C11_14 
ROOT
ATOM      1  C7  <0> d          23.492  55.583 -29.073  0.00  0.00     0.040 A 
ATOM      2  C8  <0> d          23.376  56.485 -28.030  0.00  0.00     0.031 A 
ATOM      3  C9  <0> d          23.493  55.757 -26.841  0.00  0.00     0.020 A 
ATOM      4  C10 <0> d          23.668  54.453 -27.166  0.00  0.00     0.097 A 
ATOM      5  N2  <0> d          23.675  54.333 -28.520  0.00  0.00    -0.322 N 
ENDROOT
BRANCH   1   6
ATOM      6  C6  <0> d          23.433  55.887 -30.453  0.00  0.00     0.054 C 
ATOM      7  C5  <0> d          22.226  55.978 -31.081  0.00  0.00     0.080 A 
ATOM      8  C4  <0> d          20.920  55.694 -30.581  0.00  0.00     0.268 A 
ATOM      9  S1  <0> d          21.849  56.493 -32.750  0.00  0.00    -0.023 SA
ATOM     10  N1  <0> d          19.894  55.862 -31.397  0.00  0.00    -0.271 N 
ATOM     11  O1  <0> d          20.755  55.307 -29.439  0.00  0.00    -0.266 OA
ATOM     12  C17 <0> d          20.076  56.292 -32.666  0.00  0.00     0.294 A 
ATOM     13  O2  <0> d          19.243  56.494 -33.530  0.00  0.00    -0.259 OA
BRANCH  10  14
ATOM     14  C3  <0> d          18.537  55.581 -30.920  0.00  0.00     0.162 C 
BRANCH  14  15
ATOM     15  C2  <0> d          18.104  54.222 -31.408  0.00  0.00    -0.017 C 
ATOM     16  C1  <0> d          18.464  53.146 -30.754  0.00  0.00     0.008 C 
ENDBRANCH  14  15
ENDBRANCH  10  14
ENDBRANCH   1   6
BRANCH   5  17
ATOM     17  C11 <0> d          23.836  53.138 -29.235  0.00  0.00     0.039 A 
ATOM     18  C16 <0> d          22.722  52.413 -29.638  0.00  0.00     0.031 A 
ATOM     19  C15 <0> d          22.883  51.236 -30.341  0.00  0.00     0.020 A 
ATOM     20  C14 <0> d          24.153  50.778 -30.644  0.00  0.00     0.006 A 
ATOM     21  C13 <0> d          25.265  51.498 -30.245  0.00  0.00     0.020 A 
ATOM     22  I1  <0> d          24.393  48.996 -31.719  0.00  0.00    -0.045 I 
ATOM     23  C12 <0> d          25.109  52.677 -29.541  0.00  0.00     0.031 A 
ENDBRANCH   5  17
TORSDOF 4
ENDMDL
MODEL 8
REMARK VINA RESULT:      -5.7     35.622     37.077
REMARK  4 active torsions:
REMARK  status: ('A' for Active; 'I' for Inactive)
REMARK    1  A    between atoms: C2_2  and  C3_3 
REMARK    2  A    between atoms: C3_3  and  N1_4 
REMARK    3  A    between atoms: C6_8  and  C7_9 
REMARK    4  A    between atoms: N2_13  and  C11_14 
ROOT
ATOM      1  C7  <0> d           2.178  52.360  -7.623  0.00  0.00     0.040 A 
ATOM      2  C8  <0> d           3.293  52.810  -8.308  0.00  0.00     0.031 A 
ATOM      3  C9  <0> d           2.833  53.498  -9.436  0.00  0.00     0.020 A 
ATOM      4  C10 <0> d           1.479  53.455  -9.427  0.00  0.00     0.097 A 
ATOM      5  N2  <0> d           1.066  52.771  -8.327  0.00  0.00    -0.322 N 
ENDROOT
BRANCH   1   6
ATOM      6  C6  <0> d           2.180  51.615  -6.420  0.00  0.00     0.054 C 
ATOM      7  C5  <0> d           2.002  52.249  -5.226  0.00  0.00     0.080 A 
ATOM      8  C4  <0> d           1.915  53.645  -4.943  0.00  0.00     0.268 A 
ATOM      9  S1  <0> d           1.804  51.556  -3.590  0.00  0.00    -0.023 SA
ATOM     10  N1  <0> d           1.739  54.014  -3.686  0.00  0.00    -0.271 N 
ATOM     11  O1  <0> d           2.003  54.472  -5.832  0.00  0.00    -0.266 OA
ATOM     12  C17 <0> d           1.642  53.095  -2.699  0.00  0.00     0.294 A 
ATOM     13  O2  <0> d           1.479  53.273  -1.506  0.00  0.00    -0.259 OA
BRANCH  10  14
ATOM     14  C3  <0> d           1.645  55.438  -3.357  0.00  0.00     0.162 C 
BRANCH  14  15
ATOM     15  C2  <0> d           0.203  55.809  -3.127  0.00  0.00    -0.017 C 
ATOM     16  C1  <0> d          -0.559  56.137  -4.141  0.00  0.00     0.008 C 
ENDBRANCH  14  15
ENDBRANCH  10  14
ENDBRANCH   1   6
BRANCH   5  17
ATOM     17  C11 <0> d          -0.266  52.520  -7.971  0.00  0.00     0.039 A 
ATOM     18  C16 <0> d          -0.941  53.401  -7.137  0.00  0.00     0.031 A 
ATOM     19  C15 <0> d          -2.253  53.149  -6.787  0.00  0.00     0.020 A 
ATOM     20  C14 <0> d          -2.895  52.022  -7.266  0.00  0.00     0.006 A 
ATOM     21  C13 <0> d          -2.225  51.143  -8.099  0.00  0.00     0.020 A 
ATOM     22  I1  <0> d          -4.888  51.650  -6.740  0.00  0.00    -0.045 I 
ATOM     23  C12 <0> d          -0.912  51.389  -8.452  0.00  0.00     0.031 A 
ENDBRANCH   5  17
TORSDOF 4
ENDMDL
MODEL 9
REMARK VINA RESULT:      -5.7     18.168     20.366
REMARK  4 active torsions:
REMARK  status: ('A' for Active; 'I' for Inactive)
REMARK    1  A    between atoms: C2_2  and  C3_3 
REMARK    2  A    between atoms: C3_3  and  N1_4 
REMARK    3  A    between atoms: C6_8  and  C7_9 
REMARK    4  A    between atoms: N2_13  and  C11_14 
ROOT
ATOM      1  C7  <0> d          23.206  53.966 -29.438  0.00  0.00     0.040 A 
ATOM      2  C8  <0> d          23.305  54.343 -28.110  0.00  0.00     0.031 A 
ATOM      3  C9  <0> d          24.190  55.425 -28.055  0.00  0.00     0.020 A 
ATOM      4  C10 <0> d          24.612  55.685 -29.316  0.00  0.00     0.097 A 
ATOM      5  N2  <0> d          24.017  54.808 -30.169  0.00  0.00    -0.322 N 
ENDROOT
BRANCH   1   6
ATOM      6  C6  <0> d          22.416  52.910 -29.951  0.00  0.00     0.054 C 
ATOM      7  C5  <0> d          21.130  53.147 -30.338  0.00  0.00     0.080 A 
ATOM      8  C4  <0> d          20.346  54.332 -30.207  0.00  0.00     0.268 A 
ATOM      9  S1  <0> d          19.970  52.059 -31.153  0.00  0.00    -0.023 SA
ATOM     10  N1  <0> d          19.107  54.311 -30.667  0.00  0.00    -0.271 N 
ATOM     11  O1  <0> d          20.804  55.333 -29.687  0.00  0.00    -0.266 OA
ATOM     12  C17 <0> d          18.599  53.199 -31.244  0.00  0.00     0.294 A 
ATOM     13  O2  <0> d          17.489  53.023 -31.712  0.00  0.00    -0.259 OA
BRANCH  10  14
ATOM     14  C3  <0> d          18.272  55.509 -30.551  0.00  0.00     0.162 C 
BRANCH  14  15
ATOM     15  C2  <0> d          18.160  56.177 -31.897  0.00  0.00    -0.017 C 
ATOM     16  C1  <0> d          19.241  56.477 -32.572  0.00  0.00     0.008 C 
ENDBRANCH  14  15
ENDBRANCH  10  14
ENDBRANCH   1   6
BRANCH   5  17
ATOM     17  C11 <0> d          24.201  54.764 -31.557  0.00  0.00     0.039 A 
ATOM     18  C16 <0> d          23.571  55.694 -32.373  0.00  0.00     0.031 A 
ATOM     19  C15 <0> d          23.753  55.647 -33.741  0.00  0.00     0.020 A 
ATOM     20  C14 <0> d          24.563  54.674 -34.299  0.00  0.00     0.006 A 
ATOM     21  C13 <0> d          25.194  53.747 -33.489  0.00  0.00     0.020 A 
ATOM     22  I1  <0> d          24.845  54.612 -36.374  0.00  0.00    -0.045 I 
ATOM     23  C12 <0> d          25.015  53.789 -32.120  0.00  0.00     0.031 A 
ENDBRANCH   5  17
TORSDOF 4
ENDMDL
MODEL 10
REMARK VINA RESULT:      -5.6     17.413     19.933
REMARK  4 active torsions:
REMARK  status: ('A' for Active; 'I' for Inactive)
REMARK    1  A    between atoms: C2_2  and  C3_3 
REMARK    2  A    between atoms: C3_3  and  N1_4 
REMARK    3  A    between atoms: C6_8  and  C7_9 
REMARK    4  A    between atoms: N2_13  and  C11_14 
ROOT
ATOM      1  C7  <0> d          27.795  59.645  -6.831  0.00  0.00     0.040 A 
ATOM      2  C8  <0> d          27.841  60.564  -7.864  0.00  0.00     0.031 A 
ATOM      3  C9  <0> d          27.674  59.852  -9.057  0.00  0.00     0.020 A 
ATOM      4  C10 <0> d          27.537  58.541  -8.744  0.00  0.00     0.097 A 
ATOM      5  N2  <0> d          27.603  58.400  -7.393  0.00  0.00    -0.322 N 
ENDROOT
BRANCH   1   6
ATOM      6  C6  <0> d          27.921  59.930  -5.451  0.00  0.00     0.054 C 
ATOM      7  C5  <0> d          29.149  59.908  -4.860  0.00  0.00     0.080 A 
ATOM      8  C4  <0> d          30.410  59.516  -5.400  0.00  0.00     0.268 A 
ATOM      9  S1  <0> d          29.619  60.373  -3.199  0.00  0.00    -0.023 SA
ATOM     10  N1  <0> d          31.471  59.586  -4.615  0.00  0.00    -0.271 N 
ATOM     11  O1  <0> d          30.506  59.127  -6.550  0.00  0.00    -0.266 OA
ATOM     12  C17 <0> d          31.364  60.018  -3.338  0.00  0.00     0.294 A 
ATOM     13  O2  <0> d          32.236  60.138  -2.499  0.00  0.00    -0.259 OA
BRANCH  10  14
ATOM     14  C3  <0> d          32.782  59.192  -5.135  0.00  0.00     0.162 C 
BRANCH  14  15
ATOM     15  C2  <0> d          33.062  57.759  -4.761  0.00  0.00    -0.017 C 
ATOM     16  C1  <0> d          33.010  56.821  -5.674  0.00  0.00     0.008 C 
ENDBRANCH  14  15
ENDBRANCH  10  14
ENDBRANCH   1   6
BRANCH   5  17
ATOM     17  C11 <0> d          27.499  57.193  -6.690  0.00  0.00     0.039 A 
ATOM     18  C16 <0> d          28.601  56.355  -6.579  0.00  0.00     0.031 A 
ATOM     19  C15 <0> d          28.496  55.165  -5.887  0.00  0.00     0.020 A 
ATOM     20  C14 <0> d          27.294  54.807  -5.304  0.00  0.00     0.006 A 
ATOM     21  C13 <0> d          26.195  55.640  -5.411  0.00  0.00     0.020 A 
ATOM     22  I1  <0> d          27.141  53.005  -4.246  0.00  0.00    -0.045 I 
ATOM     23  C12 <0> d          26.294  56.831  -6.103  0.00  0.00     0.031 A 
ENDBRANCH   5  17
TORSDOF 4
ENDMDL
