MODEL 1
REMARK VINA RESULT:      -6.8      0.000      0.000
REMARK  2 active torsions:
REMARK  status: ('A' for Active; 'I' for Inactive)
REMARK    1  A    between atoms: N2_13  and  N3_14 
REMARK       I    between atoms: N3_14  and  C10_15 
REMARK    2  A    between atoms: C10_15  and  C11_17 
ROOT
ATOM      1  C1  <0> d          29.790  69.722 -22.306  0.00  0.00     0.049 C 
ATOM      2  C2  <0> d          29.494  69.271 -23.713  0.00  0.00    -0.044 A 
ATOM      3  C3  <0> d          28.387  69.764 -24.376  0.00  0.00     0.024 A 
ATOM      4  C4  <0> d          28.119  69.345 -25.674  0.00  0.00     0.027 A 
ATOM      5  C5  <0> d          28.963  68.428 -26.313  0.00  0.00     0.049 A 
ATOM      6  C6  <0> d          30.073  67.942 -25.631  0.00  0.00     0.050 A 
ATOM      7  C7  <0> d          30.336  68.369 -24.343  0.00  0.00     0.019 A 
ATOM      8 Br1  <0> d          31.854  67.707 -23.428  0.00  0.00    -0.051 Br
ATOM      9  N1  <0> d          28.482  68.174 -27.593  0.00  0.00    -0.321 N 
ATOM     10  C8  <0> d          27.361  68.871 -27.844  0.00  0.00     0.277 A 
ATOM     11  O1  <0> d          26.720  68.848 -28.878  0.00  0.00    -0.266 OA
ATOM     12  C9  <0> d          27.044  69.670 -26.643  0.00  0.00     0.157 A 
ATOM     13  N2  <0> d          26.034  70.486 -26.469  0.00  0.00    -0.166 NA
ATOM     14  H6  <0> d          28.902  67.569 -28.224  0.00  0.00     0.169 HD
ENDROOT
BRANCH  13  15
ATOM     15  N3  <0> d          25.103  70.677 -27.499  0.00  0.00    -0.242 N 
ATOM     16  C10 <0> d          23.898  70.076 -27.439  0.00  0.00     0.271 C 
ATOM     17  O2  <0> d          23.619  69.368 -26.492  0.00  0.00    -0.266 OA
ATOM     18  H7  <0> d          25.326  71.242 -28.256  0.00  0.00     0.192 HD
BRANCH  16  19
ATOM     19  C11 <0> d          22.917  70.277 -28.525  0.00  0.00     0.035 A 
ATOM     20  C16 <0> d          21.803  69.443 -28.628  0.00  0.00     0.035 A 
ATOM     21  C15 <0> d          20.887  69.640 -29.641  0.00  0.00     0.007 A 
ATOM     22  C14 <0> d          21.078  70.656 -30.561  0.00  0.00     0.018 A 
ATOM     23  I1  <0> d          19.210  68.395 -29.791  0.00  0.00    -0.045 I 
ATOM     24  C13 <0> d          22.184  71.483 -30.469  0.00  0.00     0.002 A 
ATOM     25  C12 <0> d          23.103  71.301 -29.457  0.00  0.00     0.017 A 
ENDBRANCH  16  19
ENDBRANCH  13  15
TORSDOF 2
ENDMDL
MODEL 2
REMARK VINA RESULT:      -6.8     21.602     23.917
REMARK  2 active torsions:
REMARK  status: ('A' for Active; 'I' for Inactive)
REMARK    1  A    between atoms: N2_13  and  N3_14 
REMARK       I    between atoms: N3_14  and  C10_15 
REMARK    2  A    between atoms: C10_15  and  C11_17 
ROOT
ATOM      1  C1  <0> d          32.948  86.010  -7.737  0.00  0.00     0.049 C 
ATOM      2  C2  <0> d          32.888  87.076  -8.800  0.00  0.00    -0.044 A 
ATOM      3  C3  <0> d          32.594  86.732 -10.105  0.00  0.00     0.024 A 
ATOM      4  C4  <0> d          32.539  87.719 -11.082  0.00  0.00     0.027 A 
ATOM      5  C5  <0> d          32.781  89.058 -10.752  0.00  0.00     0.049 A 
ATOM      6  C6  <0> d          33.076  89.387  -9.434  0.00  0.00     0.050 A 
ATOM      7  C7  <0> d          33.121  88.399  -8.467  0.00  0.00     0.019 A 
ATOM      8 Br1  <0> d          33.515  88.860  -6.676  0.00  0.00    -0.051 Br
ATOM      9  N1  <0> d          32.667  89.842 -11.896  0.00  0.00    -0.321 N 
ATOM     10  C8  <0> d          32.363  89.098 -12.973  0.00  0.00     0.277 A 
ATOM     11  O1  <0> d          32.203  89.511 -14.106  0.00  0.00    -0.266 OA
ATOM     12  C9  <0> d          32.258  87.691 -12.538  0.00  0.00     0.157 A 
ATOM     13  N2  <0> d          31.979  86.645 -13.276  0.00  0.00    -0.166 NA
ATOM     14  H6  <0> d          32.792  90.804 -11.913  0.00  0.00     0.169 HD
ENDROOT
BRANCH  13  15
ATOM     15  N3  <0> d          31.739  86.800 -14.648  0.00  0.00    -0.242 N 
ATOM     16  C10 <0> d          32.633  86.341 -15.546  0.00  0.00     0.271 C 
ATOM     17  O2  <0> d          33.649  85.794 -15.166  0.00  0.00    -0.266 OA
ATOM     18  H7  <0> d          30.928  87.238 -14.951  0.00  0.00     0.192 HD
BRANCH  16  19
ATOM     19  C11 <0> d          32.380  86.506 -16.992  0.00  0.00     0.035 A 
ATOM     20  C16 <0> d          32.488  87.765 -17.584  0.00  0.00     0.035 A 
ATOM     21  C15 <0> d          32.256  87.911 -18.937  0.00  0.00     0.007 A 
ATOM     22  C14 <0> d          31.905  86.813 -19.703  0.00  0.00     0.018 A 
ATOM     23  I1  <0> d          32.427  89.798 -19.830  0.00  0.00    -0.045 I 
ATOM     24  C13 <0> d          31.790  85.563 -19.121  0.00  0.00     0.002 A 
ATOM     25  C12 <0> d          32.026  85.403 -17.772  0.00  0.00     0.017 A 
ENDBRANCH  16  19
ENDBRANCH  13  15
TORSDOF 2
ENDMDL
MODEL 3
REMARK VINA RESULT:      -6.7     20.811     21.870
REMARK  2 active torsions:
REMARK  status: ('A' for Active; 'I' for Inactive)
REMARK    1  A    between atoms: N2_13  and  N3_14 
REMARK       I    between atoms: N3_14  and  C10_15 
REMARK    2  A    between atoms: C10_15  and  C11_17 
ROOT
ATOM      1  C1  <0> d          19.088  64.835  -5.256  0.00  0.00     0.049 C 
ATOM      2  C2  <0> d          18.595  64.661  -6.670  0.00  0.00    -0.044 A 
ATOM      3  C3  <0> d          17.239  64.618  -6.927  0.00  0.00     0.024 A 
ATOM      4  C4  <0> d          16.790  64.459  -8.233  0.00  0.00     0.027 A 
ATOM      5  C5  <0> d          17.704  64.340  -9.288  0.00  0.00     0.049 A 
ATOM      6  C6  <0> d          19.066  64.384  -9.011  0.00  0.00     0.050 A 
ATOM      7  C7  <0> d          19.503  64.551  -7.710  0.00  0.00     0.019 A 
ATOM      8 Br1  <0> d          21.358  64.619  -7.347  0.00  0.00    -0.051 Br
ATOM      9  N1  <0> d          17.009  64.192 -10.484  0.00  0.00    -0.321 N 
ATOM     10  C8  <0> d          15.680  64.204 -10.285  0.00  0.00     0.277 A 
ATOM     11  O1  <0> d          14.827  64.093 -11.145  0.00  0.00    -0.266 OA
ATOM     12  C9  <0> d          15.440  64.375  -8.838  0.00  0.00     0.157 A 
ATOM     13  N2  <0> d          14.284  64.437  -8.222  0.00  0.00    -0.166 NA
ATOM     14  H6  <0> d          17.432  64.092 -11.351  0.00  0.00     0.169 HD
ENDROOT
BRANCH  13  15
ATOM     15  N3  <0> d          13.094  64.339  -8.955  0.00  0.00    -0.242 N 
ATOM     16  C10 <0> d          12.338  65.436  -9.163  0.00  0.00     0.271 C 
ATOM     17  O2  <0> d          12.688  66.509  -8.712  0.00  0.00    -0.266 OA
ATOM     18  H7  <0> d          12.815  63.482  -9.315  0.00  0.00     0.192 HD
BRANCH  16  19
ATOM     19  C11 <0> d          11.083  65.332  -9.935  0.00  0.00     0.035 A 
ATOM     20  C16 <0> d           9.886  65.809  -9.396  0.00  0.00     0.035 A 
ATOM     21  C15 <0> d           8.718  65.716 -10.125  0.00  0.00     0.007 A 
ATOM     22  C14 <0> d           8.730  65.139 -11.384  0.00  0.00     0.018 A 
ATOM     23  I1  <0> d           6.924  66.439  -9.324  0.00  0.00    -0.045 I 
ATOM     24  C13 <0> d           9.912  64.659 -11.921  0.00  0.00     0.002 A 
ATOM     25  C12 <0> d          11.087  64.753 -11.205  0.00  0.00     0.017 A 
ENDBRANCH  16  19
ENDBRANCH  13  15
TORSDOF 2
ENDMDL
MODEL 4
REMARK VINA RESULT:      -6.4     21.970     24.731
REMARK  2 active torsions:
REMARK  status: ('A' for Active; 'I' for Inactive)
REMARK    1  A    between atoms: N2_13  and  N3_14 
REMARK       I    between atoms: N3_14  and  C10_15 
REMARK    2  A    between atoms: C10_15  and  C11_17 
ROOT
ATOM      1  C1  <0> d          32.830  91.017 -19.387  0.00  0.00     0.049 C 
ATOM      2  C2  <0> d          32.678  89.692 -18.686  0.00  0.00    -0.044 A 
ATOM      3  C3  <0> d          32.710  89.633 -17.307  0.00  0.00     0.024 A 
ATOM      4  C4  <0> d          32.569  88.408 -16.665  0.00  0.00     0.027 A 
ATOM      5  C5  <0> d          32.394  87.234 -17.409  0.00  0.00     0.049 A 
ATOM      6  C6  <0> d          32.365  87.311 -18.797  0.00  0.00     0.050 A 
ATOM      7  C7  <0> d          32.499  88.534 -19.426  0.00  0.00     0.019 A 
ATOM      8 Br1  <0> d          32.448  88.627 -21.314  0.00  0.00    -0.051 Br
ATOM      9  N1  <0> d          32.278  86.153 -16.541  0.00  0.00    -0.321 N 
ATOM     10  C8  <0> d          32.366  86.541 -15.258  0.00  0.00     0.277 A 
ATOM     11  O1  <0> d          32.301  85.815 -14.285  0.00  0.00    -0.266 OA
ATOM     12  C9  <0> d          32.558  88.005 -15.239  0.00  0.00     0.157 A 
ATOM     13  N2  <0> d          32.691  88.780 -14.190  0.00  0.00    -0.166 NA
ATOM     14  H6  <0> d          32.151  85.235 -16.828  0.00  0.00     0.169 HD
ENDROOT
BRANCH  13  15
ATOM     15  N3  <0> d          32.656  88.228 -12.903  0.00  0.00    -0.242 N 
ATOM     16  C10 <0> d          32.844  89.017 -11.826  0.00  0.00     0.271 C 
ATOM     17  O2  <0> d          33.044  90.206 -11.971  0.00  0.00    -0.266 OA
ATOM     18  H7  <0> d          32.496  87.278 -12.787  0.00  0.00     0.192 HD
BRANCH  16  19
ATOM     19  C11 <0> d          32.807  88.434 -10.469  0.00  0.00     0.035 A 
ATOM     20  C16 <0> d          31.600  87.989  -9.928  0.00  0.00     0.035 A 
ATOM     21  C15 <0> d          31.574  87.440  -8.662  0.00  0.00     0.007 A 
ATOM     22  C14 <0> d          32.741  87.341  -7.925  0.00  0.00     0.018 A 
ATOM     23  I1  <0> d          29.765  86.763  -7.853  0.00  0.00    -0.045 I 
ATOM     24  C13 <0> d          33.941  87.786  -8.452  0.00  0.00     0.002 A 
ATOM     25  C12 <0> d          33.981  88.330  -9.719  0.00  0.00     0.017 A 
ENDBRANCH  16  19
ENDBRANCH  13  15
TORSDOF 2
ENDMDL
MODEL 5
REMARK VINA RESULT:      -6.3     15.480     17.814
REMARK  2 active torsions:
REMARK  status: ('A' for Active; 'I' for Inactive)
REMARK    1  A    between atoms: N2_13  and  N3_14 
REMARK       I    between atoms: N3_14  and  C10_15 
REMARK    2  A    between atoms: C10_15  and  C11_17 
ROOT
ATOM      1  C1  <0> d          14.467  57.634 -30.944  0.00  0.00     0.049 C 
ATOM      2  C2  <0> d          15.582  56.948 -31.691  0.00  0.00    -0.044 A 
ATOM      3  C3  <0> d          16.709  56.526 -31.013  0.00  0.00     0.024 A 
ATOM      4  C4  <0> d          17.733  55.893 -31.706  0.00  0.00     0.027 A 
ATOM      5  C5  <0> d          17.630  55.680 -33.087  0.00  0.00     0.049 A 
ATOM      6  C6  <0> d          16.489  56.112 -33.754  0.00  0.00     0.050 A 
ATOM      7  C7  <0> d          15.472  56.735 -33.055  0.00  0.00     0.019 A 
ATOM      8 Br1  <0> d          13.920  57.309 -33.971  0.00  0.00    -0.051 Br
ATOM      9  N1  <0> d          18.775  55.034 -33.540  0.00  0.00    -0.321 N 
ATOM     10  C8  <0> d          19.639  54.803 -32.537  0.00  0.00     0.277 A 
ATOM     11  O1  <0> d          20.721  54.256 -32.636  0.00  0.00    -0.266 OA
ATOM     12  C9  <0> d          19.042  55.332 -31.294  0.00  0.00     0.157 A 
ATOM     13  N2  <0> d          19.557  55.311 -30.089  0.00  0.00    -0.166 NA
ATOM     14  H6  <0> d          18.930  54.782 -34.464  0.00  0.00     0.169 HD
ENDROOT
BRANCH  13  15
ATOM     15  N3  <0> d          20.817  54.736 -29.876  0.00  0.00    -0.242 N 
ATOM     16  C10 <0> d          21.907  55.521 -29.769  0.00  0.00     0.271 C 
ATOM     17  O2  <0> d          21.798  56.728 -29.859  0.00  0.00    -0.266 OA
ATOM     18  H7  <0> d          20.904  53.772 -29.804  0.00  0.00     0.192 HD
BRANCH  16  19
ATOM     19  C11 <0> d          23.235  54.914 -29.545  0.00  0.00     0.035 A 
ATOM     20  C16 <0> d          23.383  53.526 -29.552  0.00  0.00     0.035 A 
ATOM     21  C15 <0> d          24.627  52.965 -29.348  0.00  0.00     0.007 A 
ATOM     22  C14 <0> d          25.726  53.777 -29.125  0.00  0.00     0.018 A 
ATOM     23  I1  <0> d          24.852  50.883 -29.368  0.00  0.00    -0.045 I 
ATOM     24  C13 <0> d          25.586  55.154 -29.111  0.00  0.00     0.002 A 
ATOM     25  C12 <0> d          24.348  55.727 -29.320  0.00  0.00     0.017 A 
ENDBRANCH  16  19
ENDBRANCH  13  15
TORSDOF 2
ENDMDL
MODEL 6
REMARK VINA RESULT:      -6.2     24.826     27.678
REMARK  2 active torsions:
REMARK  status: ('A' for Active; 'I' for Inactive)
REMARK    1  A    between atoms: N2_13  and  N3_14 
REMARK       I    between atoms: N3_14  and  C10_15 
REMARK    2  A    between atoms: C10_15  and  C11_17 
ROOT
ATOM      1  C1  <0> d           2.232  47.254 -25.075  0.00  0.00     0.049 C 
ATOM      2  C2  <0> d           2.488  48.727 -25.267  0.00  0.00    -0.044 A 
ATOM      3  C3  <0> d           3.746  49.167 -25.625  0.00  0.00     0.024 A 
ATOM      4  C4  <0> d           3.977  50.527 -25.800  0.00  0.00     0.027 A 
ATOM      5  C5  <0> d           2.941  51.452 -25.617  0.00  0.00     0.049 A 
ATOM      6  C6  <0> d           1.680  50.991 -25.256  0.00  0.00     0.050 A 
ATOM      7  C7  <0> d           1.458  49.636 -25.090  0.00  0.00     0.019 A 
ATOM      8 Br1  <0> d          -0.264  49.021 -24.609  0.00  0.00    -0.051 Br
ATOM      9  N1  <0> d           3.423  52.735 -25.851  0.00  0.00    -0.321 N 
ATOM     10  C8  <0> d           4.726  52.719 -26.180  0.00  0.00     0.277 A 
ATOM     11  O1  <0> d           5.412  53.689 -26.437  0.00  0.00    -0.266 OA
ATOM     12  C9  <0> d           5.178  51.312 -26.173  0.00  0.00     0.157 A 
ATOM     13  N2  <0> d           6.378  50.857 -26.437  0.00  0.00    -0.166 NA
ATOM     14  H6  <0> d           2.886  53.540 -25.783  0.00  0.00     0.169 HD
ENDROOT
BRANCH  13  15
ATOM     15  N3  <0> d           7.405  51.748 -26.775  0.00  0.00    -0.242 N 
ATOM     16  C10 <0> d           8.689  51.338 -26.749  0.00  0.00     0.271 C 
ATOM     17  O2  <0> d           8.956  50.196 -26.431  0.00  0.00    -0.266 OA
ATOM     18  H7  <0> d           7.193  52.660 -27.029  0.00  0.00     0.192 HD
BRANCH  16  19
ATOM     19  C11 <0> d           9.772  52.278 -27.105  0.00  0.00     0.035 A 
ATOM     20  C16 <0> d           9.466  53.545 -27.604  0.00  0.00     0.035 A 
ATOM     21  C15 <0> d          10.482  54.420 -27.929  0.00  0.00     0.007 A 
ATOM     22  C14 <0> d          11.804  54.039 -27.770  0.00  0.00     0.018 A 
ATOM     23  I1  <0> d          10.026  56.325 -28.670  0.00  0.00    -0.045 I 
ATOM     24  C13 <0> d          12.114  52.782 -27.281  0.00  0.00     0.002 A 
ATOM     25  C12 <0> d          11.108  51.900 -26.947  0.00  0.00     0.017 A 
ENDBRANCH  16  19
ENDBRANCH  13  15
TORSDOF 2
ENDMDL
MODEL 7
REMARK VINA RESULT:      -6.2     23.320     25.833
REMARK  2 active torsions:
REMARK  status: ('A' for Active; 'I' for Inactive)
REMARK    1  A    between atoms: N2_13  and  N3_14 
REMARK       I    between atoms: N3_14  and  C10_15 
REMARK    2  A    between atoms: C10_15  and  C11_17 
ROOT
ATOM      1  C1  <0> d           9.816  57.780 -28.608  0.00  0.00     0.049 C 
ATOM      2  C2  <0> d           9.775  56.318 -28.242  0.00  0.00    -0.044 A 
ATOM      3  C3  <0> d           8.624  55.774 -27.706  0.00  0.00     0.024 A 
ATOM      4  C4  <0> d           8.591  54.426 -27.371  0.00  0.00     0.027 A 
ATOM      5  C5  <0> d           9.716  53.616 -27.574  0.00  0.00     0.049 A 
ATOM      6  C6  <0> d          10.866  54.181 -28.114  0.00  0.00     0.050 A 
ATOM      7  C7  <0> d          10.888  55.521 -28.451  0.00  0.00     0.019 A 
ATOM      8 Br1  <0> d          12.455  56.275 -29.194  0.00  0.00    -0.051 Br
ATOM      9  N1  <0> d           9.429  52.319 -27.163  0.00  0.00    -0.321 N 
ATOM     10  C8  <0> d           8.174  52.217 -26.695  0.00  0.00     0.277 A 
ATOM     11  O1  <0> d           7.649  51.207 -26.267  0.00  0.00    -0.266 OA
ATOM     12  C9  <0> d           7.545  53.550 -26.792  0.00  0.00     0.157 A 
ATOM     13  N2  <0> d           6.327  53.886 -26.441  0.00  0.00    -0.166 NA
ATOM     14  H6  <0> d          10.058  51.581 -27.207  0.00  0.00     0.169 HD
ENDROOT
BRANCH  13  15
ATOM     15  N3  <0> d           5.462  52.923 -25.905  0.00  0.00    -0.242 N 
ATOM     16  C10 <0> d           4.287  52.660 -26.511  0.00  0.00     0.271 C 
ATOM     17  O2  <0> d           3.978  53.259 -27.522  0.00  0.00    -0.266 OA
ATOM     18  H7  <0> d           5.709  52.445 -25.097  0.00  0.00     0.192 HD
BRANCH  16  19
ATOM     19  C11 <0> d           3.375  51.645 -25.945  0.00  0.00     0.035 A 
ATOM     20  C16 <0> d           2.321  52.033 -25.117  0.00  0.00     0.035 A 
ATOM     21  C15 <0> d           1.468  51.081 -24.597  0.00  0.00     0.007 A 
ATOM     22  C14 <0> d           1.664  49.741 -24.886  0.00  0.00     0.018 A 
ATOM     23  I1  <0> d          -0.120  51.662 -23.361  0.00  0.00    -0.045 I 
ATOM     24  C13 <0> d           2.711  49.349 -25.702  0.00  0.00     0.002 A 
ATOM     25  C12 <0> d           3.566  50.292 -26.233  0.00  0.00     0.017 A 
ENDBRANCH  16  19
ENDBRANCH  13  15
TORSDOF 2
ENDMDL
MODEL 8
REMARK VINA RESULT:      -6.1      6.189      9.756
REMARK  2 active torsions:
REMARK  status: ('A' for Active; 'I' for Inactive)
REMARK    1  A    between atoms: N2_13  and  N3_14 
REMARK       I    between atoms: N3_14  and  C10_15 
REMARK    2  A    between atoms: C10_15  and  C11_17 
ROOT
ATOM      1  C1  <0> d          17.478  62.481 -29.177  0.00  0.00     0.049 C 
ATOM      2  C2  <0> d          17.745  63.814 -29.828  0.00  0.00    -0.044 A 
ATOM      3  C3  <0> d          18.835  64.566 -29.438  0.00  0.00     0.024 A 
ATOM      4  C4  <0> d          19.077  65.794 -30.042  0.00  0.00     0.027 A 
ATOM      5  C5  <0> d          18.222  66.272 -31.044  0.00  0.00     0.049 A 
ATOM      6  C6  <0> d          17.129  65.502 -31.424  0.00  0.00     0.050 A 
ATOM      7  C7  <0> d          16.901  64.279 -30.823  0.00  0.00     0.019 A 
ATOM      8 Br1  <0> d          15.415  63.236 -31.356  0.00  0.00    -0.051 Br
ATOM      9  N1  <0> d          18.677  67.511 -31.484  0.00  0.00    -0.321 N 
ATOM     10  C8  <0> d          19.789  67.887 -30.830  0.00  0.00     0.277 A 
ATOM     11  O1  <0> d          20.406  68.921 -31.004  0.00  0.00    -0.266 OA
ATOM     12  C9  <0> d          20.128  66.824 -29.863  0.00  0.00     0.157 A 
ATOM     13  N2  <0> d          21.137  66.796 -29.028  0.00  0.00    -0.166 NA
ATOM     14  H6  <0> d          18.245  68.037 -32.175  0.00  0.00     0.169 HD
ENDROOT
BRANCH  13  15
ATOM     15  N3  <0> d          22.045  67.863 -28.990  0.00  0.00    -0.242 N 
ATOM     16  C10 <0> d          22.736  68.121 -27.862  0.00  0.00     0.271 C 
ATOM     17  O2  <0> d          22.572  67.428 -26.877  0.00  0.00    -0.266 OA
ATOM     18  H7  <0> d          22.176  68.416 -29.776  0.00  0.00     0.192 HD
BRANCH  16  19
ATOM     19  C11 <0> d          23.692  69.246 -27.822  0.00  0.00     0.035 A 
ATOM     20  C16 <0> d          24.930  69.093 -27.196  0.00  0.00     0.035 A 
ATOM     21  C15 <0> d          25.822  70.147 -27.168  0.00  0.00     0.007 A 
ATOM     22  C14 <0> d          25.484  71.357 -27.750  0.00  0.00     0.018 A 
ATOM     23  I1  <0> d          27.684  69.917 -26.238  0.00  0.00    -0.045 I 
ATOM     24  C13 <0> d          24.256  71.517 -28.366  0.00  0.00     0.002 A 
ATOM     25  C12 <0> d          23.359  70.470 -28.407  0.00  0.00     0.017 A 
ENDBRANCH  16  19
ENDBRANCH  13  15
TORSDOF 2
ENDMDL
MODEL 9
REMARK VINA RESULT:      -6.0     15.114     17.271
REMARK  2 active torsions:
REMARK  status: ('A' for Active; 'I' for Inactive)
REMARK    1  A    between atoms: N2_13  and  N3_14 
REMARK       I    between atoms: N3_14  and  C10_15 
REMARK    2  A    between atoms: C10_15  and  C11_17 
ROOT
ATOM      1  C1  <0> d          16.003  57.164 -36.735  0.00  0.00     0.049 C 
ATOM      2  C2  <0> d          17.507  57.206 -36.637  0.00  0.00    -0.044 A 
ATOM      3  C3  <0> d          18.121  57.082 -35.406  0.00  0.00     0.024 A 
ATOM      4  C4  <0> d          19.508  57.121 -35.321  0.00  0.00     0.027 A 
ATOM      5  C5  <0> d          20.285  57.285 -36.475  0.00  0.00     0.049 A 
ATOM      6  C6  <0> d          19.650  57.409 -37.705  0.00  0.00     0.050 A 
ATOM      7  C7  <0> d          18.271  57.362 -37.781  0.00  0.00     0.019 A 
ATOM      8 Br1  <0> d          17.419  57.522 -39.463  0.00  0.00    -0.051 Br
ATOM      9  N1  <0> d          21.631  57.291 -36.126  0.00  0.00    -0.321 N 
ATOM     10  C8  <0> d          21.796  57.140 -34.801  0.00  0.00     0.277 A 
ATOM     11  O1  <0> d          22.859  57.109 -34.211  0.00  0.00    -0.266 OA
ATOM     12  C9  <0> d          20.458  57.021 -34.188  0.00  0.00     0.157 A 
ATOM     13  N2  <0> d          20.172  56.862 -32.919  0.00  0.00    -0.166 NA
ATOM     14  H6  <0> d          22.359  57.392 -36.759  0.00  0.00     0.169 HD
ENDROOT
BRANCH  13  15
ATOM     15  N3  <0> d          21.202  56.786 -31.973  0.00  0.00    -0.242 N 
ATOM     16  C10 <0> d          21.493  55.609 -31.385  0.00  0.00     0.271 C 
ATOM     17  O2  <0> d          20.861  54.613 -31.674  0.00  0.00    -0.266 OA
ATOM     18  H7  <0> d          21.708  57.582 -31.741  0.00  0.00     0.192 HD
BRANCH  16  19
ATOM     19  C11 <0> d          22.580  55.530 -30.387  0.00  0.00     0.035 A 
ATOM     20  C16 <0> d          22.281  55.531 -29.023  0.00  0.00     0.035 A 
ATOM     21  C15 <0> d          23.300  55.450 -28.096  0.00  0.00     0.007 A 
ATOM     22  C14 <0> d          24.618  55.380 -28.517  0.00  0.00     0.018 A 
ATOM     23  I1  <0> d          22.855  55.443 -26.050  0.00  0.00    -0.045 I 
ATOM     24  C13 <0> d          24.920  55.384 -29.867  0.00  0.00     0.002 A 
ATOM     25  C12 <0> d          23.911  55.457 -30.804  0.00  0.00     0.017 A 
ENDBRANCH  16  19
ENDBRANCH  13  15
TORSDOF 2
ENDMDL
MODEL 10
REMARK VINA RESULT:      -5.7     20.655     22.393
REMARK  2 active torsions:
REMARK  status: ('A' for Active; 'I' for Inactive)
REMARK    1  A    between atoms: N2_13  and  N3_14 
REMARK       I    between atoms: N3_14  and  C10_15 
REMARK    2  A    between atoms: C10_15  and  C11_17 
ROOT
ATOM      1  C1  <0> d          31.080  84.675 -10.880  0.00  0.00     0.049 C 
ATOM      2  C2  <0> d          31.519  85.899 -11.641  0.00  0.00    -0.044 A 
ATOM      3  C3  <0> d          31.557  85.877 -13.021  0.00  0.00     0.024 A 
ATOM      4  C4  <0> d          31.962  87.009 -13.718  0.00  0.00     0.027 A 
ATOM      5  C5  <0> d          32.332  88.172 -13.030  0.00  0.00     0.049 A 
ATOM      6  C6  <0> d          32.288  88.177 -11.640  0.00  0.00     0.050 A 
ATOM      7  C7  <0> d          31.878  87.048 -10.955  0.00  0.00     0.019 A 
ATOM      8 Br1  <0> d          31.814  87.071  -9.065  0.00  0.00    -0.051 Br
ATOM      9  N1  <0> d          32.692  89.153 -13.946  0.00  0.00    -0.321 N 
ATOM     10  C8  <0> d          32.585  88.710 -15.210  0.00  0.00     0.277 A 
ATOM     11  O1  <0> d          32.833  89.347 -16.216  0.00  0.00    -0.266 OA
ATOM     12  C9  <0> d          32.111  87.312 -15.161  0.00  0.00     0.157 A 
ATOM     13  N2  <0> d          31.876  86.513 -16.173  0.00  0.00    -0.166 NA
ATOM     14  H6  <0> d          32.986  90.045 -13.703  0.00  0.00     0.169 HD
ENDROOT
BRANCH  13  15
ATOM     15  N3  <0> d          32.072  86.966 -17.484  0.00  0.00    -0.242 N 
ATOM     16  C10 <0> d          31.012  87.188 -18.286  0.00  0.00     0.271 C 
ATOM     17  O2  <0> d          29.886  86.993 -17.873  0.00  0.00    -0.266 OA
ATOM     18  H7  <0> d          32.971  87.121 -17.814  0.00  0.00     0.192 HD
BRANCH  16  19
ATOM     19  C11 <0> d          31.219  87.666 -19.669  0.00  0.00     0.035 A 
ATOM     20  C16 <0> d          32.426  88.266 -20.030  0.00  0.00     0.035 A 
ATOM     21  C15 <0> d          32.615  88.704 -21.325  0.00  0.00     0.007 A 
ATOM     22  C14 <0> d          31.606  88.560 -22.262  0.00  0.00     0.018 A 
ATOM     23  I1  <0> d          34.429  89.598 -21.872  0.00  0.00    -0.045 I 
ATOM     24  C13 <0> d          30.405  87.970 -21.908  0.00  0.00     0.002 A 
ATOM     25  C12 <0> d          30.206  87.522 -20.619  0.00  0.00     0.017 A 
ENDBRANCH  16  19
ENDBRANCH  13  15
TORSDOF 2
ENDMDL
