MODEL 1
REMARK VINA RESULT:      -8.3      0.000      0.000
REMARK  3 active torsions:
REMARK  status: ('A' for Active; 'I' for Inactive)
REMARK    1  A    between atoms: C6_6  and  C7_7 
REMARK    2  A    between atoms: C9_9  and  C14_19 
REMARK    3  A    between atoms: C12_14  and  C13_16 
ROOT
ATOM      1  C7  <0> d          29.442  69.918 -23.329  0.00  0.00     0.071 A 
ATOM      2  C8  <0> d          30.008  68.701 -23.775  0.00  0.00     0.069 A 
ATOM      3  C9  <0> d          29.686  68.231 -25.001  0.00  0.00     0.146 A 
ATOM      4  N1  <0> d          28.827  68.949 -25.788  0.00  0.00    -0.208 N 
ATOM      5  C10 <0> d          28.295  70.127 -25.325  0.00  0.00     0.176 A 
ATOM      6  N2  <0> d          28.613  70.587 -24.108  0.00  0.00    -0.227 NA
ATOM      7  C11 <0> d          27.467  70.623 -26.324  0.00  0.00     0.119 A 
ATOM      8  C12 <0> d          27.511  69.722 -27.394  0.00  0.00     0.179 A 
ATOM      9  N3  <0> d          28.322  68.724 -27.075  0.00  0.00    -0.157 NA
ATOM     10 Cl1  <0> d          26.545  72.092 -26.256  0.00  0.00    -0.077 Cl
ENDROOT
BRANCH   1  11
ATOM     11  C6  <0> d          29.782  70.444 -21.986  0.00  0.00    -0.007 A 
ATOM     12  C1  <0> d          30.447  69.635 -21.065  0.00  0.00     0.015 A 
ATOM     13  C2  <0> d          30.764  70.130 -19.818  0.00  0.00     0.020 A 
ATOM     14  C3  <0> d          30.414  71.425 -19.475  0.00  0.00     0.011 A 
ATOM     15  C4  <0> d          29.749  72.231 -20.383  0.00  0.00     0.020 A 
ATOM     16 Br1  <0> d          30.846  72.095 -17.761  0.00  0.00    -0.051 Br
ATOM     17  C5  <0> d          29.431  71.748 -21.636  0.00  0.00     0.015 A 
ENDBRANCH   1  11
BRANCH   3  18
ATOM     18  C14 <0> d          30.276  66.937 -25.499  0.00  0.00     0.434 C 
ATOM     19  F1  <0> d          29.586  65.860 -24.933  0.00  0.00    -0.165 F 
ATOM     20  F2  <0> d          30.165  66.880 -26.893  0.00  0.00    -0.165 F 
ATOM     21  F3  <0> d          31.626  66.869 -25.137  0.00  0.00    -0.165 F 
ENDBRANCH   3  18
BRANCH   8  22
ATOM     22  C13 <0> d          26.776  69.862 -28.667  0.00  0.00     0.232 C 
ATOM     23  O1  <0> d          25.566  69.967 -28.663  0.00  0.00    -0.643 OA
ATOM     24  O2  <0> d          27.448  69.871 -29.835  0.00  0.00    -0.643 OA
ENDBRANCH   8  22
TORSDOF 3
ENDMDL
MODEL 2
REMARK VINA RESULT:      -7.9      4.351      6.123
REMARK  3 active torsions:
REMARK  status: ('A' for Active; 'I' for Inactive)
REMARK    1  A    between atoms: C6_6  and  C7_7 
REMARK    2  A    between atoms: C9_9  and  C14_19 
REMARK    3  A    between atoms: C12_14  and  C13_16 
ROOT
ATOM      1  C7  <0> d          26.654  71.025 -26.278  0.00  0.00     0.071 A 
ATOM      2  C8  <0> d          26.660  70.210 -27.434  0.00  0.00     0.069 A 
ATOM      3  C9  <0> d          27.541  69.189 -27.521  0.00  0.00     0.146 A 
ATOM      4  N1  <0> d          28.402  68.959 -26.482  0.00  0.00    -0.208 N 
ATOM      5  C10 <0> d          28.371  69.768 -25.373  0.00  0.00     0.176 A 
ATOM      6  N2  <0> d          27.500  70.782 -25.293  0.00  0.00    -0.227 NA
ATOM      7  C11 <0> d          29.346  69.305 -24.500  0.00  0.00     0.119 A 
ATOM      8  C12 <0> d          29.964  68.204 -25.103  0.00  0.00     0.179 A 
ATOM      9  N3  <0> d          29.401  67.997 -26.285  0.00  0.00    -0.157 NA
ATOM     10 Cl1  <0> d          29.729  69.971 -22.944  0.00  0.00    -0.077 Cl
ENDROOT
BRANCH   1  11
ATOM     11  C6  <0> d          25.698  72.151 -26.171  0.00  0.00    -0.007 A 
ATOM     12  C1  <0> d          25.051  72.407 -24.962  0.00  0.00     0.015 A 
ATOM     13  C2  <0> d          24.164  73.459 -24.866  0.00  0.00     0.020 A 
ATOM     14  C3  <0> d          23.908  74.254 -25.970  0.00  0.00     0.011 A 
ATOM     15  C4  <0> d          24.543  74.002 -27.174  0.00  0.00     0.020 A 
ATOM     16 Br1  <0> d          22.687  75.691 -25.833  0.00  0.00    -0.051 Br
ATOM     17  C5  <0> d          25.436  72.955 -27.280  0.00  0.00     0.015 A 
ENDBRANCH   1  11
BRANCH   3  18
ATOM     18  C14 <0> d          27.566  68.307 -28.741  0.00  0.00     0.434 C 
ATOM     19  F1  <0> d          28.646  67.420 -28.655  0.00  0.00    -0.165 F 
ATOM     20  F2  <0> d          26.373  67.580 -28.818  0.00  0.00    -0.165 F 
ATOM     21  F3  <0> d          27.703  69.099 -29.887  0.00  0.00    -0.165 F 
ENDBRANCH   3  18
BRANCH   8  22
ATOM     22  C13 <0> d          31.059  67.404 -24.519  0.00  0.00     0.232 C 
ATOM     23  O1  <0> d          31.302  67.481 -23.332  0.00  0.00    -0.643 OA
ATOM     24  O2  <0> d          31.792  66.590 -25.304  0.00  0.00    -0.643 OA
ENDBRANCH   8  22
TORSDOF 3
ENDMDL
MODEL 3
REMARK VINA RESULT:      -7.6      2.411      3.264
REMARK  3 active torsions:
REMARK  status: ('A' for Active; 'I' for Inactive)
REMARK    1  A    between atoms: C6_6  and  C7_7 
REMARK    2  A    between atoms: C9_9  and  C14_19 
REMARK    3  A    between atoms: C12_14  and  C13_16 
ROOT
ATOM      1  C7  <0> d          29.411  69.870 -21.338  0.00  0.00     0.071 A 
ATOM      2  C8  <0> d          30.777  69.628 -21.612  0.00  0.00     0.069 A 
ATOM      3  C9  <0> d          31.146  69.252 -22.857  0.00  0.00     0.146 A 
ATOM      4  N1  <0> d          30.190  69.124 -23.828  0.00  0.00    -0.208 N 
ATOM      5  C10 <0> d          28.872  69.367 -23.529  0.00  0.00     0.176 A 
ATOM      6  N2  <0> d          28.510  69.735 -22.293  0.00  0.00    -0.227 NA
ATOM      7  C11 <0> d          28.143  69.155 -24.691  0.00  0.00     0.119 A 
ATOM      8  C12 <0> d          29.045  68.781 -25.693  0.00  0.00     0.179 A 
ATOM      9  N3  <0> d          30.266  68.763 -25.179  0.00  0.00    -0.157 NA
ATOM     10 Cl1  <0> d          26.424  69.324 -24.868  0.00  0.00    -0.077 Cl
ENDROOT
BRANCH   1  11
ATOM     11  C6  <0> d          28.990  70.279 -19.977  0.00  0.00    -0.007 A 
ATOM     12  C1  <0> d          27.982  71.228 -19.812  0.00  0.00     0.015 A 
ATOM     13  C2  <0> d          27.592  71.602 -18.542  0.00  0.00     0.020 A 
ATOM     14  C3  <0> d          28.206  71.044 -17.434  0.00  0.00     0.011 A 
ATOM     15  C4  <0> d          29.210  70.105 -17.593  0.00  0.00     0.020 A 
ATOM     16 Br1  <0> d          27.669  71.566 -15.698  0.00  0.00    -0.051 Br
ATOM     17  C5  <0> d          29.605  69.719 -18.857  0.00  0.00     0.015 A 
ENDBRANCH   1  11
BRANCH   3  18
ATOM     18  C14 <0> d          32.595  68.988 -23.174  0.00  0.00     0.434 C 
ATOM     19  F1  <0> d          32.966  69.720 -24.308  0.00  0.00    -0.165 F 
ATOM     20  F2  <0> d          33.389  69.378 -22.089  0.00  0.00    -0.165 F 
ATOM     21  F3  <0> d          32.779  67.623 -23.419  0.00  0.00    -0.165 F 
ENDBRANCH   3  18
BRANCH   8  22
ATOM     22  C13 <0> d          28.694  68.461 -27.092  0.00  0.00     0.232 C 
ATOM     23  O1  <0> d          28.994  67.383 -27.563  0.00  0.00    -0.643 OA
ATOM     24  O2  <0> d          28.042  69.367 -27.847  0.00  0.00    -0.643 OA
ENDBRANCH   8  22
TORSDOF 3
ENDMDL
MODEL 4
REMARK VINA RESULT:      -7.5      6.044      8.000
REMARK  3 active torsions:
REMARK  status: ('A' for Active; 'I' for Inactive)
REMARK    1  A    between atoms: C6_6  and  C7_7 
REMARK    2  A    between atoms: C9_9  and  C14_19 
REMARK    3  A    between atoms: C12_14  and  C13_16 
ROOT
ATOM      1  C7  <0> d          27.638  69.108 -22.322  0.00  0.00     0.071 A 
ATOM      2  C8  <0> d          26.677  68.608 -21.414  0.00  0.00     0.069 A 
ATOM      3  C9  <0> d          27.000  68.486 -20.107  0.00  0.00     0.146 A 
ATOM      4  N1  <0> d          28.249  68.859 -19.690  0.00  0.00    -0.208 N 
ATOM      5  C10 <0> d          29.160  69.341 -20.598  0.00  0.00     0.176 A 
ATOM      6  N2  <0> d          28.837  69.456 -21.892  0.00  0.00    -0.227 NA
ATOM      7  C11 <0> d          30.323  69.629 -19.897  0.00  0.00     0.119 A 
ATOM      8  C12 <0> d          30.096  69.311 -18.553  0.00  0.00     0.179 A 
ATOM      9  N3  <0> d          28.860  68.853 -18.429  0.00  0.00    -0.157 NA
ATOM     10 Cl1  <0> d          31.793  70.266 -20.567  0.00  0.00    -0.077 Cl
ENDROOT
BRANCH   1  11
ATOM     11  C6  <0> d          27.300  69.243 -23.759  0.00  0.00    -0.007 A 
ATOM     12  C1  <0> d          28.303  69.157 -24.725  0.00  0.00     0.015 A 
ATOM     13  C2  <0> d          27.982  69.280 -26.061  0.00  0.00     0.020 A 
ATOM     14  C3  <0> d          26.669  69.498 -26.443  0.00  0.00     0.011 A 
ATOM     15  C4  <0> d          25.671  69.589 -25.488  0.00  0.00     0.020 A 
ATOM     16 Br1  <0> d          26.239  69.671 -28.275  0.00  0.00    -0.051 Br
ATOM     17  C5  <0> d          25.979  69.462 -24.149  0.00  0.00     0.015 A 
ENDBRANCH   1  11
BRANCH   3  18
ATOM     18  C14 <0> d          25.993  67.956 -19.120  0.00  0.00     0.434 C 
ATOM     19  F1  <0> d          26.525  66.842 -18.462  0.00  0.00    -0.165 F 
ATOM     20  F2  <0> d          25.692  68.950 -18.182  0.00  0.00    -0.165 F 
ATOM     21  F3  <0> d          24.826  67.586 -19.796  0.00  0.00    -0.165 F 
ENDBRANCH   3  18
BRANCH   8  22
ATOM     22  C13 <0> d          31.073  69.463 -17.456  0.00  0.00     0.232 C 
ATOM     23  O1  <0> d          31.458  70.569 -17.133  0.00  0.00    -0.643 OA
ATOM     24  O2  <0> d          31.538  68.375 -16.812  0.00  0.00    -0.643 OA
ENDBRANCH   8  22
TORSDOF 3
ENDMDL
MODEL 5
REMARK VINA RESULT:      -7.5      4.990      6.928
REMARK  3 active torsions:
REMARK  status: ('A' for Active; 'I' for Inactive)
REMARK    1  A    between atoms: C6_6  and  C7_7 
REMARK    2  A    between atoms: C9_9  and  C14_19 
REMARK    3  A    between atoms: C12_14  and  C13_16 
ROOT
ATOM      1  C7  <0> d          26.119  69.492 -24.979  0.00  0.00     0.071 A 
ATOM      2  C8  <0> d          26.321  69.881 -23.635  0.00  0.00     0.069 A 
ATOM      3  C9  <0> d          27.508  69.627 -23.043  0.00  0.00     0.146 A 
ATOM      4  N1  <0> d          28.494  69.006 -23.761  0.00  0.00    -0.208 N 
ATOM      5  C10 <0> d          28.266  68.641 -25.065  0.00  0.00     0.176 A 
ATOM      6  N2  <0> d          27.086  68.890 -25.647  0.00  0.00    -0.227 NA
ATOM      7  C11 <0> d          29.426  68.036 -25.529  0.00  0.00     0.119 A 
ATOM      8  C12 <0> d          30.355  68.043 -24.483  0.00  0.00     0.179 A 
ATOM      9  N3  <0> d          29.800  68.622 -23.428  0.00  0.00    -0.157 NA
ATOM     10 Cl1  <0> d          29.678  67.387 -27.120  0.00  0.00    -0.077 Cl
ENDROOT
BRANCH   1  11
ATOM     11  C6  <0> d          24.820  69.760 -25.641  0.00  0.00    -0.007 A 
ATOM     12  C1  <0> d          24.021  70.819 -25.210  0.00  0.00     0.015 A 
ATOM     13  C2  <0> d          22.815  71.066 -25.832  0.00  0.00     0.020 A 
ATOM     14  C3  <0> d          22.392  70.260 -26.875  0.00  0.00     0.011 A 
ATOM     15  C4  <0> d          23.179  69.205 -27.303  0.00  0.00     0.020 A 
ATOM     16 Br1  <0> d          20.735  70.602 -27.717  0.00  0.00    -0.051 Br
ATOM     17  C5  <0> d          24.390  68.951 -26.693  0.00  0.00     0.015 A 
ENDBRANCH   1  11
BRANCH   3  18
ATOM     18  C14 <0> d          27.748  70.032 -21.612  0.00  0.00     0.434 C 
ATOM     19  F1  <0> d          26.608  70.667 -21.108  0.00  0.00    -0.165 F 
ATOM     20  F2  <0> d          28.024  68.894 -20.844  0.00  0.00    -0.165 F 
ATOM     21  F3  <0> d          28.836  70.910 -21.551  0.00  0.00    -0.165 F 
ENDBRANCH   3  18
BRANCH   8  22
ATOM     22  C13 <0> d          31.726  67.498 -24.544  0.00  0.00     0.232 C 
ATOM     23  O1  <0> d          31.949  66.481 -25.169  0.00  0.00    -0.643 OA
ATOM     24  O2  <0> d          32.731  68.129 -23.905  0.00  0.00    -0.643 OA
ENDBRANCH   8  22
TORSDOF 3
ENDMDL
MODEL 6
REMARK VINA RESULT:      -7.4      5.364      7.267
REMARK  3 active torsions:
REMARK  status: ('A' for Active; 'I' for Inactive)
REMARK    1  A    between atoms: C6_6  and  C7_7 
REMARK    2  A    between atoms: C9_9  and  C14_19 
REMARK    3  A    between atoms: C12_14  and  C13_16 
ROOT
ATOM      1  C7  <0> d          27.940  69.376 -23.208  0.00  0.00     0.071 A 
ATOM      2  C8  <0> d          29.294  69.334 -23.613  0.00  0.00     0.069 A 
ATOM      3  C9  <0> d          30.267  69.325 -22.674  0.00  0.00     0.146 A 
ATOM      4  N1  <0> d          29.919  69.347 -21.351  0.00  0.00    -0.208 N 
ATOM      5  C10 <0> d          28.594  69.387 -20.991  0.00  0.00     0.176 A 
ATOM      6  N2  <0> d          27.634  69.400 -21.924  0.00  0.00    -0.227 NA
ATOM      7  C11 <0> d          28.548  69.406 -19.603  0.00  0.00     0.119 A 
ATOM      8  C12 <0> d          29.866  69.376 -19.136  0.00  0.00     0.179 A 
ATOM      9  N3  <0> d          30.684  69.341 -20.178  0.00  0.00    -0.157 NA
ATOM     10 Cl1  <0> d          27.114  69.457 -18.626  0.00  0.00    -0.077 Cl
ENDROOT
BRANCH   1  11
ATOM     11  C6  <0> d          26.863  69.391 -24.225  0.00  0.00    -0.007 A 
ATOM     12  C1  <0> d          27.183  69.400 -25.583  0.00  0.00     0.015 A 
ATOM     13  C2  <0> d          26.176  69.410 -26.526  0.00  0.00     0.020 A 
ATOM     14  C3  <0> d          24.851  69.422 -26.127  0.00  0.00     0.011 A 
ATOM     15  C4  <0> d          24.528  69.418 -24.781  0.00  0.00     0.020 A 
ATOM     16 Br1  <0> d          23.477  69.442 -27.426  0.00  0.00    -0.051 Br
ATOM     17  C5  <0> d          25.525  69.402 -23.828  0.00  0.00     0.015 A 
ENDBRANCH   1  11
BRANCH   3  18
ATOM     18  C14 <0> d          31.716  69.281 -23.080  0.00  0.00     0.434 C 
ATOM     19  F1  <0> d          32.383  70.394 -22.557  0.00  0.00    -0.165 F 
ATOM     20  F2  <0> d          32.304  68.111 -22.586  0.00  0.00    -0.165 F 
ATOM     21  F3  <0> d          31.811  69.294 -24.477  0.00  0.00    -0.165 F 
ENDBRANCH   3  18
BRANCH   8  22
ATOM     22  C13 <0> d          30.278  69.383 -17.718  0.00  0.00     0.232 C 
ATOM     23  O1  <0> d          30.387  70.434 -17.121  0.00  0.00    -0.643 OA
ATOM     24  O2  <0> d          30.533  68.221 -17.085  0.00  0.00    -0.643 OA
ENDBRANCH   8  22
TORSDOF 3
ENDMDL
MODEL 7
REMARK VINA RESULT:      -7.4      3.359      3.891
REMARK  3 active torsions:
REMARK  status: ('A' for Active; 'I' for Inactive)
REMARK    1  A    between atoms: C6_6  and  C7_7 
REMARK    2  A    between atoms: C9_9  and  C14_19 
REMARK    3  A    between atoms: C12_14  and  C13_16 
ROOT
ATOM      1  C7  <0> d          28.458  69.881 -22.770  0.00  0.00     0.071 A 
ATOM      2  C8  <0> d          27.465  70.867 -22.974  0.00  0.00     0.069 A 
ATOM      3  C9  <0> d          26.934  71.026 -24.206  0.00  0.00     0.146 A 
ATOM      4  N1  <0> d          27.361  70.222 -25.228  0.00  0.00    -0.208 N 
ATOM      5  C10 <0> d          28.327  69.274 -24.996  0.00  0.00     0.176 A 
ATOM      6  N2  <0> d          28.854  69.122 -23.775  0.00  0.00    -0.227 NA
ATOM      7  C11 <0> d          28.559  68.623 -26.200  0.00  0.00     0.119 A 
ATOM      8  C12 <0> d          27.717  69.197 -27.160  0.00  0.00     0.179 A 
ATOM      9  N3  <0> d          27.002  70.150 -26.580  0.00  0.00    -0.157 NA
ATOM     10 Cl1  <0> d          29.690  67.333 -26.467  0.00  0.00    -0.077 Cl
ENDROOT
BRANCH   1  11
ATOM     11  C6  <0> d          29.054  69.697 -21.425  0.00  0.00    -0.007 A 
ATOM     12  C1  <0> d          30.394  70.016 -21.204  0.00  0.00     0.015 A 
ATOM     13  C2  <0> d          30.942  69.846 -19.950  0.00  0.00     0.020 A 
ATOM     14  C3  <0> d          30.168  69.352 -18.914  0.00  0.00     0.011 A 
ATOM     15  C4  <0> d          28.839  69.030 -19.129  0.00  0.00     0.020 A 
ATOM     16 Br1  <0> d          30.929  69.117 -17.199  0.00  0.00    -0.051 Br
ATOM     17  C5  <0> d          28.278  69.199 -20.378  0.00  0.00     0.015 A 
ENDBRANCH   1  11
BRANCH   3  18
ATOM     18  C14 <0> d          25.875  72.070 -24.449  0.00  0.00     0.434 C 
ATOM     19  F1  <0> d          26.282  72.917 -25.486  0.00  0.00    -0.165 F 
ATOM     20  F2  <0> d          24.675  71.443 -24.805  0.00  0.00    -0.165 F 
ATOM     21  F3  <0> d          25.680  72.819 -23.283  0.00  0.00    -0.165 F 
ENDBRANCH   3  18
BRANCH   8  22
ATOM     22  C13 <0> d          27.637  68.804 -28.581  0.00  0.00     0.232 C 
ATOM     23  O1  <0> d          27.110  67.756 -28.894  0.00  0.00    -0.643 OA
ATOM     24  O2  <0> d          28.151  69.608 -29.532  0.00  0.00    -0.643 OA
ENDBRANCH   8  22
TORSDOF 3
ENDMDL
MODEL 8
REMARK VINA RESULT:      -7.3     16.131     18.490
REMARK  3 active torsions:
REMARK  status: ('A' for Active; 'I' for Inactive)
REMARK    1  A    between atoms: C6_6  and  C7_7 
REMARK    2  A    between atoms: C9_9  and  C14_19 
REMARK    3  A    between atoms: C12_14  and  C13_16 
ROOT
ATOM      1  C7  <0> d          23.815  55.225 -33.151  0.00  0.00     0.071 A 
ATOM      2  C8  <0> d          22.420  55.456 -33.138  0.00  0.00     0.069 A 
ATOM      3  C9  <0> d          21.808  55.755 -31.971  0.00  0.00     0.146 A 
ATOM      4  N1  <0> d          22.555  55.839 -30.827  0.00  0.00    -0.208 N 
ATOM      5  C10 <0> d          23.908  55.610 -30.873  0.00  0.00     0.176 A 
ATOM      6  N2  <0> d          24.510  55.309 -32.031  0.00  0.00    -0.227 NA
ATOM      7  C11 <0> d          24.393  55.758 -29.581  0.00  0.00     0.119 A 
ATOM      8  C12 <0> d          23.308  56.080 -28.757  0.00  0.00     0.179 A 
ATOM      9  N3  <0> d          22.212  56.129 -29.500  0.00  0.00    -0.157 NA
ATOM     10 Cl1  <0> d          26.044  55.576 -29.078  0.00  0.00    -0.077 Cl
ENDROOT
BRANCH   1  11
ATOM     11  C6  <0> d          24.499  54.891 -34.422  0.00  0.00    -0.007 A 
ATOM     12  C1  <0> d          25.713  54.204 -34.404  0.00  0.00     0.015 A 
ATOM     13  C2  <0> d          26.344  53.892 -35.591  0.00  0.00     0.020 A 
ATOM     14  C3  <0> d          25.779  54.268 -36.797  0.00  0.00     0.011 A 
ATOM     15  C4  <0> d          24.576  54.954 -36.821  0.00  0.00     0.020 A 
ATOM     16 Br1  <0> d          26.652  53.842 -38.419  0.00  0.00    -0.051 Br
ATOM     17  C5  <0> d          23.934  55.267 -35.641  0.00  0.00     0.015 A 
ENDBRANCH   1  11
BRANCH   3  18
ATOM     18  C14 <0> d          20.323  56.006 -31.932  0.00  0.00     0.434 C 
ATOM     19  F1  <0> d          20.081  57.317 -31.508  0.00  0.00    -0.165 F 
ATOM     20  F2  <0> d          19.785  55.823 -33.211  0.00  0.00    -0.165 F 
ATOM     21  F3  <0> d          19.722  55.109 -31.041  0.00  0.00    -0.165 F 
ENDBRANCH   3  18
BRANCH   8  22
ATOM     22  C13 <0> d          23.375  56.326 -27.303  0.00  0.00     0.232 C 
ATOM     23  O1  <0> d          23.397  57.463 -26.878  0.00  0.00    -0.643 OA
ATOM     24  O2  <0> d          23.412  55.287 -26.445  0.00  0.00    -0.643 OA
ENDBRANCH   8  22
TORSDOF 3
ENDMDL
MODEL 9
REMARK VINA RESULT:      -6.9     16.868     19.048
REMARK  3 active torsions:
REMARK  status: ('A' for Active; 'I' for Inactive)
REMARK    1  A    between atoms: C6_6  and  C7_7 
REMARK    2  A    between atoms: C9_9  and  C14_19 
REMARK    3  A    between atoms: C12_14  and  C13_16 
ROOT
ATOM      1  C7  <0> d          24.731  55.033 -34.670  0.00  0.00     0.071 A 
ATOM      2  C8  <0> d          23.638  55.820 -35.101  0.00  0.00     0.069 A 
ATOM      3  C9  <0> d          22.788  56.332 -34.183  0.00  0.00     0.146 A 
ATOM      4  N1  <0> d          23.011  56.086 -32.855  0.00  0.00    -0.208 N 
ATOM      5  C10 <0> d          24.082  55.318 -32.470  0.00  0.00     0.176 A 
ATOM      6  N2  <0> d          24.919  54.808 -33.383  0.00  0.00    -0.227 NA
ATOM      7  C11 <0> d          24.051  55.237 -31.085  0.00  0.00     0.119 A 
ATOM      8  C12 <0> d          22.943  55.969 -30.644  0.00  0.00     0.179 A 
ATOM      9  N3  <0> d          22.323  56.476 -31.699  0.00  0.00    -0.157 NA
ATOM     10 Cl1  <0> d          25.181  54.382 -30.082  0.00  0.00    -0.077 Cl
ENDROOT
BRANCH   1  11
ATOM     11  C6  <0> d          25.669  54.460 -35.665  0.00  0.00    -0.007 A 
ATOM     12  C1  <0> d          26.792  53.751 -35.241  0.00  0.00     0.015 A 
ATOM     13  C2  <0> d          27.660  53.218 -36.171  0.00  0.00     0.020 A 
ATOM     14  C3  <0> d          27.422  53.393 -37.523  0.00  0.00     0.011 A 
ATOM     15  C4  <0> d          26.311  54.100 -37.950  0.00  0.00     0.020 A 
ATOM     16 Br1  <0> d          28.619  52.663 -38.792  0.00  0.00    -0.051 Br
ATOM     17  C5  <0> d          25.433  54.634 -37.029  0.00  0.00     0.015 A 
ENDBRANCH   1  11
BRANCH   3  18
ATOM     18  C14 <0> d          21.617  57.174 -34.616  0.00  0.00     0.434 C 
ATOM     19  F1  <0> d          21.508  57.141 -36.010  0.00  0.00    -0.165 F 
ATOM     20  F2  <0> d          20.443  56.668 -34.046  0.00  0.00    -0.165 F 
ATOM     21  F3  <0> d          21.808  58.494 -34.193  0.00  0.00    -0.165 F 
ENDBRANCH   3  18
BRANCH   8  22
ATOM     22  C13 <0> d          22.534  56.148 -29.236  0.00  0.00     0.232 C 
ATOM     23  O1  <0> d          23.207  56.830 -28.489  0.00  0.00    -0.643 OA
ATOM     24  O2  <0> d          21.415  55.554 -28.778  0.00  0.00    -0.643 OA
ENDBRANCH   8  22
TORSDOF 3
ENDMDL
MODEL 10
REMARK VINA RESULT:      -6.8     21.052     22.933
REMARK  3 active torsions:
REMARK  status: ('A' for Active; 'I' for Inactive)
REMARK    1  A    between atoms: C6_6  and  C7_7 
REMARK    2  A    between atoms: C9_9  and  C14_19 
REMARK    3  A    between atoms: C12_14  and  C13_16 
ROOT
ATOM      1  C7  <0> d          31.653  56.032  -6.490  0.00  0.00     0.071 A 
ATOM      2  C8  <0> d          31.778  57.388  -6.872  0.00  0.00     0.069 A 
ATOM      3  C9  <0> d          30.680  58.176  -6.887  0.00  0.00     0.146 A 
ATOM      4  N1  <0> d          29.472  57.646  -6.522  0.00  0.00    -0.208 N 
ATOM      5  C10 <0> d          29.385  56.326  -6.155  0.00  0.00     0.176 A 
ATOM      6  N2  <0> d          30.475  55.547  -6.146  0.00  0.00    -0.227 NA
ATOM      7  C11 <0> d          28.056  56.073  -5.846  0.00  0.00     0.119 A 
ATOM      8  C12 <0> d          27.345  57.264  -6.033  0.00  0.00     0.179 A 
ATOM      9  N3  <0> d          28.190  58.202  -6.435  0.00  0.00    -0.157 NA
ATOM     10 Cl1  <0> d          27.394  54.556  -5.323  0.00  0.00    -0.077 Cl
ENDROOT
BRANCH   1  11
ATOM     11  C6  <0> d          32.848  55.154  -6.473  0.00  0.00    -0.007 A 
ATOM     12  C1  <0> d          34.126  55.712  -6.465  0.00  0.00     0.015 A 
ATOM     13  C2  <0> d          35.234  54.891  -6.446  0.00  0.00     0.020 A 
ATOM     14  C3  <0> d          35.079  53.515  -6.445  0.00  0.00     0.011 A 
ATOM     15  C4  <0> d          33.813  52.957  -6.458  0.00  0.00     0.020 A 
ATOM     16 Br1  <0> d          36.603  52.397  -6.425  0.00  0.00    -0.051 Br
ATOM     17  C5  <0> d          32.697  53.767  -6.472  0.00  0.00     0.015 A 
ENDBRANCH   1  11
BRANCH   3  18
ATOM     18  C14 <0> d          30.787  59.623  -7.291  0.00  0.00     0.434 C 
ATOM     19  F1  <0> d          30.493  60.437  -6.192  0.00  0.00    -0.165 F 
ATOM     20  F2  <0> d          32.088  59.890  -7.732  0.00  0.00    -0.165 F 
ATOM     21  F3  <0> d          29.882  59.888  -8.324  0.00  0.00    -0.165 F 
ENDBRANCH   3  18
BRANCH   8  22
ATOM     22  C13 <0> d          25.896  57.446  -5.817  0.00  0.00     0.232 C 
ATOM     23  O1  <0> d          25.466  57.626  -4.695  0.00  0.00    -0.643 OA
ATOM     24  O2  <0> d          25.048  57.410  -6.864  0.00  0.00    -0.643 OA
ENDBRANCH   8  22
TORSDOF 3
ENDMDL
