MODEL 1
REMARK VINA RESULT:      -6.8      0.000      0.000
REMARK  0 active torsions:
REMARK  status: ('A' for Active; 'I' for Inactive)
ROOT
ATOM      1  C1  <0> d          26.976  69.711 -27.998  0.00  0.00     0.160 C 
ATOM      2  N1  <0> d          28.035  68.894 -27.400  0.00  0.00    -0.311 N 
ATOM      3  C2  <0> d          28.451  67.764 -28.027  0.00  0.00     0.214 A 
ATOM      4  N2  <0> d          29.388  67.004 -27.539  0.00  0.00    -0.222 NA
ATOM      5  C3  <0> d          29.999  67.311 -26.369  0.00  0.00     0.185 A 
ATOM      6  C4  <0> d          29.608  68.462 -25.682  0.00  0.00     0.153 A 
ATOM      7  C5  <0> d          28.597  69.274 -26.229  0.00  0.00     0.279 A 
ATOM      8  O1  <0> d          28.234  70.290 -25.662  0.00  0.00    -0.265 OA
ATOM      9  N3  <0> d          30.388  68.517 -24.543  0.00  0.00    -0.327 N 
ATOM     10  C6  <0> d          31.204  67.445 -24.566  0.00  0.00     0.109 A 
ATOM     11  N4  <0> d          30.968  66.734 -25.645  0.00  0.00    -0.213 NA
ATOM     12  C7  <0> d          32.096  67.448 -23.340  0.00  0.00     0.080 C 
ATOM     13  C8  <0> d          31.995  68.893 -22.799  0.00  0.00     0.028 C 
ATOM     14  C9  <0> d          30.619  69.335 -23.342  0.00  0.00     0.131 C 
ENDROOT
TORSDOF 0
ENDMDL
MODEL 2
REMARK VINA RESULT:      -6.8      0.828      4.414
REMARK  0 active torsions:
REMARK  status: ('A' for Active; 'I' for Inactive)
ROOT
ATOM      1  C1  <0> d          31.248  68.915 -22.787  0.00  0.00     0.160 C 
ATOM      2  N1  <0> d          30.765  68.370 -24.058  0.00  0.00    -0.311 N 
ATOM      3  C2  <0> d          31.318  67.235 -24.559  0.00  0.00     0.214 A 
ATOM      4  N2  <0> d          30.926  66.709 -25.683  0.00  0.00    -0.222 NA
ATOM      5  C3  <0> d          29.935  67.277 -26.413  0.00  0.00     0.185 A 
ATOM      6  C4  <0> d          29.334  68.447 -25.944  0.00  0.00     0.153 A 
ATOM      7  C5  <0> d          29.769  68.997 -24.723  0.00  0.00     0.279 A 
ATOM      8  O1  <0> d          29.263  70.013 -24.279  0.00  0.00    -0.265 OA
ATOM      9  N3  <0> d          28.376  68.793 -26.878  0.00  0.00    -0.327 N 
ATOM     10  C6  <0> d          28.415  67.860 -27.851  0.00  0.00     0.109 A 
ATOM     11  N4  <0> d          29.338  66.969 -27.572  0.00  0.00    -0.213 NA
ATOM     12  C7  <0> d          27.378  68.178 -28.911  0.00  0.00     0.080 C 
ATOM     13  C8  <0> d          26.431  69.190 -28.228  0.00  0.00     0.028 C 
ATOM     14  C9  <0> d          27.356  69.814 -27.161  0.00  0.00     0.131 C 
ENDROOT
TORSDOF 0
ENDMDL
MODEL 3
REMARK VINA RESULT:      -6.1      1.572      2.567
REMARK  0 active torsions:
REMARK  status: ('A' for Active; 'I' for Inactive)
ROOT
ATOM      1  C1  <0> d          26.021  72.464 -27.552  0.00  0.00     0.160 C 
ATOM      2  N1  <0> d          26.753  71.196 -27.613  0.00  0.00    -0.311 N 
ATOM      3  C2  <0> d          26.691  70.435 -28.736  0.00  0.00     0.214 A 
ATOM      4  N2  <0> d          27.323  69.302 -28.843  0.00  0.00    -0.222 NA
ATOM      5  C3  <0> d          28.081  68.826 -27.825  0.00  0.00     0.185 A 
ATOM      6  C4  <0> d          28.177  69.569 -26.646  0.00  0.00     0.153 A 
ATOM      7  C5  <0> d          27.491  70.794 -26.553  0.00  0.00     0.279 A 
ATOM      8  O1  <0> d          27.557  71.473 -25.543  0.00  0.00    -0.265 OA
ATOM      9  N3  <0> d          29.000  68.849 -25.801  0.00  0.00    -0.327 N 
ATOM     10  C6  <0> d          29.372  67.735 -26.461  0.00  0.00     0.109 A 
ATOM     11  N4  <0> d          28.825  67.724 -27.654  0.00  0.00    -0.213 NA
ATOM     12  C7  <0> d          30.286  66.898 -25.586  0.00  0.00     0.080 C 
ATOM     13  C8  <0> d          30.748  67.871 -24.477  0.00  0.00     0.028 C 
ATOM     14  C9  <0> d          29.589  68.892 -24.454  0.00  0.00     0.131 C 
ENDROOT
TORSDOF 0
ENDMDL
MODEL 4
REMARK VINA RESULT:      -5.7      4.731      6.699
REMARK  0 active torsions:
REMARK  status: ('A' for Active; 'I' for Inactive)
ROOT
ATOM      1  C1  <0> d          33.415  75.054 -21.249  0.00  0.00     0.160 C 
ATOM      2  N1  <0> d          32.763  73.742 -21.223  0.00  0.00    -0.311 N 
ATOM      3  C2  <0> d          31.741  73.514 -20.360  0.00  0.00     0.214 A 
ATOM      4  N2  <0> d          31.127  72.368 -20.296  0.00  0.00    -0.222 NA
ATOM      5  C3  <0> d          31.487  71.338 -21.100  0.00  0.00     0.185 A 
ATOM      6  C4  <0> d          32.535  71.518 -22.006  0.00  0.00     0.153 A 
ATOM      7  C5  <0> d          33.181  72.767 -22.063  0.00  0.00     0.279 A 
ATOM      8  O1  <0> d          34.095  72.964 -22.845  0.00  0.00    -0.265 OA
ATOM      9  N3  <0> d          32.677  70.319 -22.678  0.00  0.00    -0.327 N 
ATOM     10  C6  <0> d          31.748  69.475 -22.188  0.00  0.00     0.109 A 
ATOM     11  N4  <0> d          31.049  70.080 -21.256  0.00  0.00    -0.213 NA
ATOM     12  C7  <0> d          31.845  68.135 -22.892  0.00  0.00     0.080 C 
ATOM     13  C8  <0> d          32.678  68.431 -24.160  0.00  0.00     0.028 C 
ATOM     14  C9  <0> d          33.485  69.672 -23.723  0.00  0.00     0.131 C 
ENDROOT
TORSDOF 0
ENDMDL
MODEL 5
REMARK VINA RESULT:      -5.3     15.070     15.699
REMARK  0 active torsions:
REMARK  status: ('A' for Active; 'I' for Inactive)
ROOT
ATOM      1  C1  <0> d          21.534  57.211 -34.483  0.00  0.00     0.160 C 
ATOM      2  N1  <0> d          21.378  56.727 -33.109  0.00  0.00    -0.311 N 
ATOM      3  C2  <0> d          20.140  56.644 -32.560  0.00  0.00     0.214 A 
ATOM      4  N2  <0> d          19.946  56.220 -31.344  0.00  0.00    -0.222 NA
ATOM      5  C3  <0> d          20.986  55.838 -30.563  0.00  0.00     0.185 A 
ATOM      6  C4  <0> d          22.282  55.906 -31.079  0.00  0.00     0.153 A 
ATOM      7  C5  <0> d          22.469  56.361 -32.398  0.00  0.00     0.279 A 
ATOM      8  O1  <0> d          23.585  56.428 -32.885  0.00  0.00    -0.265 OA
ATOM      9  N3  <0> d          23.122  55.464 -30.076  0.00  0.00    -0.327 N 
ATOM     10  C6  <0> d          22.349  55.147 -29.019  0.00  0.00     0.109 A 
ATOM     11  N4  <0> d          21.088  55.372 -29.311  0.00  0.00    -0.213 NA
ATOM     12  C7  <0> d          23.213  54.645 -27.878  0.00  0.00     0.080 C 
ATOM     13  C8  <0> d          24.566  54.307 -28.545  0.00  0.00     0.028 C 
ATOM     14  C9  <0> d          24.545  55.231 -29.782  0.00  0.00     0.131 C 
ENDROOT
TORSDOF 0
ENDMDL
MODEL 6
REMARK VINA RESULT:      -4.9     14.743     15.671
REMARK  0 active torsions:
REMARK  status: ('A' for Active; 'I' for Inactive)
ROOT
ATOM      1  C1  <0> d          18.378  56.217 -32.329  0.00  0.00     0.160 C 
ATOM      2  N1  <0> d          19.832  56.213 -32.152  0.00  0.00    -0.311 N 
ATOM      3  C2  <0> d          20.638  56.584 -33.180  0.00  0.00     0.214 A 
ATOM      4  N2  <0> d          21.935  56.598 -33.074  0.00  0.00    -0.222 NA
ATOM      5  C3  <0> d          22.547  56.241 -31.919  0.00  0.00     0.185 A 
ATOM      6  C4  <0> d          21.764  55.850 -30.830  0.00  0.00     0.153 A 
ATOM      7  C5  <0> d          20.362  55.846 -30.963  0.00  0.00     0.279 A 
ATOM      8  O1  <0> d          19.647  55.517 -30.033  0.00  0.00    -0.265 OA
ATOM      9  N3  <0> d          22.644  55.545 -29.809  0.00  0.00    -0.327 N 
ATOM     10  C6  <0> d          23.888  55.754 -30.281  0.00  0.00     0.109 A 
ATOM     11  N4  <0> d          23.826  56.163 -31.527  0.00  0.00    -0.213 NA
ATOM     12  C7  <0> d          24.908  55.443 -29.202  0.00  0.00     0.080 C 
ATOM     13  C8  <0> d          24.086  55.428 -27.894  0.00  0.00     0.028 C 
ATOM     14  C9  <0> d          22.675  55.079 -28.415  0.00  0.00     0.131 C 
ENDROOT
TORSDOF 0
ENDMDL
MODEL 7
REMARK VINA RESULT:      -4.8      2.264      5.513
REMARK  0 active torsions:
REMARK  status: ('A' for Active; 'I' for Inactive)
ROOT
ATOM      1  C1  <0> d          30.627  69.189 -23.055  0.00  0.00     0.160 C 
ATOM      2  N1  <0> d          29.223  69.265 -23.466  0.00  0.00    -0.311 N 
ATOM      3  C2  <0> d          28.249  69.362 -22.525  0.00  0.00     0.214 A 
ATOM      4  N2  <0> d          26.987  69.433 -22.836  0.00  0.00    -0.222 NA
ATOM      5  C3  <0> d          26.584  69.415 -24.130  0.00  0.00     0.185 A 
ATOM      6  C4  <0> d          27.546  69.314 -25.138  0.00  0.00     0.153 A 
ATOM      7  C5  <0> d          28.905  69.244 -24.781  0.00  0.00     0.279 A 
ATOM      8  O1  <0> d          29.773  69.162 -25.633  0.00  0.00    -0.265 OA
ATOM      9  N3  <0> d          26.855  69.316 -26.335  0.00  0.00    -0.327 N 
ATOM     10  C6  <0> d          25.544  69.417 -26.038  0.00  0.00     0.109 A 
ATOM     11  N4  <0> d          25.390  69.473 -24.735  0.00  0.00    -0.213 NA
ATOM     12  C7  <0> d          24.726  69.431 -27.315  0.00  0.00     0.080 C 
ATOM     13  C8  <0> d          25.753  69.751 -28.423  0.00  0.00     0.028 C 
ATOM     14  C9  <0> d          27.067  69.243 -27.789  0.00  0.00     0.131 C 
ENDROOT
TORSDOF 0
ENDMDL
MODEL 8
REMARK VINA RESULT:      -4.8     14.885     15.673
REMARK  0 active torsions:
REMARK  status: ('A' for Active; 'I' for Inactive)
ROOT
ATOM      1  C1  <0> d          24.883  54.250 -34.286  0.00  0.00     0.160 C 
ATOM      2  N1  <0> d          24.174  54.902 -33.182  0.00  0.00    -0.311 N 
ATOM      3  C2  <0> d          23.288  55.898 -33.443  0.00  0.00     0.214 A 
ATOM      4  N2  <0> d          22.632  56.509 -32.500  0.00  0.00    -0.222 NA
ATOM      5  C3  <0> d          22.805  56.174 -31.198  0.00  0.00     0.185 A 
ATOM      6  C4  <0> d          23.706  55.157 -30.873  0.00  0.00     0.153 A 
ATOM      7  C5  <0> d          24.402  54.505 -31.909  0.00  0.00     0.279 A 
ATOM      8  O1  <0> d          25.191  53.609 -31.665  0.00  0.00    -0.265 OA
ATOM      9  N3  <0> d          23.677  55.038 -29.497  0.00  0.00    -0.327 N 
ATOM     10  C6  <0> d          22.792  55.944 -29.038  0.00  0.00     0.109 A 
ATOM     11  N4  <0> d          22.282  56.614 -30.045  0.00  0.00    -0.213 NA
ATOM     12  C7  <0> d          22.706  55.861 -27.526  0.00  0.00     0.080 C 
ATOM     13  C8  <0> d          23.344  54.496 -27.182  0.00  0.00     0.028 C 
ATOM     14  C9  <0> d          24.276  54.272 -28.394  0.00  0.00     0.131 C 
ENDROOT
TORSDOF 0
ENDMDL
MODEL 9
REMARK VINA RESULT:      -4.8     14.613     15.793
REMARK  0 active torsions:
REMARK  status: ('A' for Active; 'I' for Inactive)
ROOT
ATOM      1  C1  <0> d          24.627  55.316 -34.655  0.00  0.00     0.160 C 
ATOM      2  N1  <0> d          24.655  54.718 -33.318  0.00  0.00    -0.311 N 
ATOM      3  C2  <0> d          25.233  53.503 -33.135  0.00  0.00     0.214 A 
ATOM      4  N2  <0> d          25.286  52.927 -31.968  0.00  0.00    -0.222 NA
ATOM      5  C3  <0> d          24.760  53.524 -30.871  0.00  0.00     0.185 A 
ATOM      6  C4  <0> d          24.152  54.774 -31.004  0.00  0.00     0.153 A 
ATOM      7  C5  <0> d          24.110  55.381 -32.273  0.00  0.00     0.279 A 
ATOM      8  O1  <0> d          23.594  56.475 -32.427  0.00  0.00    -0.265 OA
ATOM      9  N3  <0> d          23.713  55.128 -29.742  0.00  0.00    -0.327 N 
ATOM     10  C6  <0> d          24.055  54.128 -28.907  0.00  0.00     0.109 A 
ATOM     11  N4  <0> d          24.670  53.182 -29.577  0.00  0.00    -0.213 NA
ATOM     12  C7  <0> d          23.605  54.458 -27.496  0.00  0.00     0.080 C 
ATOM     13  C8  <0> d          23.326  55.978 -27.530  0.00  0.00     0.028 C 
ATOM     14  C9  <0> d          23.013  56.205 -29.025  0.00  0.00     0.131 C 
ENDROOT
TORSDOF 0
ENDMDL
MODEL 10
REMARK VINA RESULT:      -4.6     23.125     23.966
REMARK  0 active torsions:
REMARK  status: ('A' for Active; 'I' for Inactive)
ROOT
ATOM      1  C1  <0> d          27.920  47.078 -22.640  0.00  0.00     0.160 C 
ATOM      2  N1  <0> d          26.567  46.773 -22.169  0.00  0.00    -0.311 N 
ATOM      3  C2  <0> d          25.492  47.248 -22.850  0.00  0.00     0.214 A 
ATOM      4  N2  <0> d          24.270  47.007 -22.475  0.00  0.00    -0.222 NA
ATOM      5  C3  <0> d          24.011  46.258 -21.375  0.00  0.00     0.185 A 
ATOM      6  C4  <0> d          25.081  45.746 -20.637  0.00  0.00     0.153 A 
ATOM      7  C5  <0> d          26.395  46.015 -21.063  0.00  0.00     0.279 A 
ATOM      8  O1  <0> d          27.353  45.579 -20.448  0.00  0.00    -0.265 OA
ATOM      9  N3  <0> d          24.525  45.038 -19.588  0.00  0.00    -0.327 N 
ATOM     10  C6  <0> d          23.186  45.131 -19.711  0.00  0.00     0.109 A 
ATOM     11  N4  <0> d          22.888  45.854 -20.766  0.00  0.00    -0.213 NA
ATOM     12  C7  <0> d          22.511  44.366 -18.589  0.00  0.00     0.080 C 
ATOM     13  C8  <0> d          23.624  43.455 -18.025  0.00  0.00     0.028 C 
ATOM     14  C9  <0> d          24.897  44.240 -18.410  0.00  0.00     0.131 C 
ENDROOT
TORSDOF 0
ENDMDL
