MODEL 1
REMARK VINA RESULT:      -7.4      0.000      0.000
REMARK  4 active torsions:
REMARK  status: ('A' for Active; 'I' for Inactive)
REMARK    1  A    between atoms: N2_4  and  C12_19 
REMARK    2  A    between atoms: C4_7  and  N3_8 
REMARK    3  A    between atoms: N4_9  and  C5_10 
REMARK    4  A    between atoms: C10_15  and  O2_16 
ROOT
ATOM      1  C1  <0> d          31.401  70.035 -17.234  0.00  0.00     0.070 C 
ATOM      2  C2  <0> d          30.775  71.162 -18.015  0.00  0.00     0.065 A 
ATOM      3  N1  <0> d          30.963  72.409 -17.827  0.00  0.00    -0.171 NA
ATOM      4  N2  <0> d          30.239  73.210 -18.706  0.00  0.00    -0.199 N 
ATOM      5  C3  <0> d          29.506  72.460 -19.555  0.00  0.00     0.277 A 
ATOM      6  O1  <0> d          28.771  72.850 -20.438  0.00  0.00    -0.268 OA
ATOM      7  C4  <0> d          29.801  71.024 -19.166  0.00  0.00     0.273 A 
ENDROOT
BRANCH   7   8
ATOM      8  N3  <0> d          30.418  70.301 -20.281  0.00  0.00    -0.171 NA
ATOM      9  N4  <0> d          31.295  70.849 -20.966  0.00  0.00    -0.152 NA
BRANCH   9  10
ATOM     10  C5  <0> d          31.870  70.173 -22.007  0.00  0.00     0.113 A 
ATOM     11  C10 <0> d          33.136  70.550 -22.477  0.00  0.00     0.098 A 
ATOM     12  C9  <0> d          33.714  69.855 -23.527  0.00  0.00     0.041 A 
ATOM     13  C8  <0> d          33.040  68.804 -24.116  0.00  0.00     0.026 A 
ATOM     14  C7  <0> d          31.785  68.431 -23.660  0.00  0.00     0.036 A 
ATOM     15  C6  <0> d          31.198  69.108 -22.611  0.00  0.00     0.060 A 
ATOM     16 Cl1  <0> d          30.950  67.108 -24.409  0.00  0.00    -0.084 Cl
BRANCH  11  17
ATOM     17  O2  <0> d          33.796  71.587 -21.901  0.00  0.00    -0.354 OA
ATOM     18  C11 <0> d          33.535  72.892 -22.422  0.00  0.00     0.210 C 
ENDBRANCH  11  17
ENDBRANCH   9  10
ENDBRANCH   7   8
BRANCH   4  19
ATOM     19  C12 <0> d          30.271  74.609 -18.709  0.00  0.00     0.061 A 
ATOM     20  C17 <0> d          29.177  75.331 -18.251  0.00  0.00     0.032 A 
ATOM     21  C16 <0> d          29.211  76.712 -18.257  0.00  0.00     0.002 A 
ATOM     22  C15 <0> d          30.332  77.375 -18.720  0.00  0.00     0.000 A 
ATOM     23  C14 <0> d          31.424  76.659 -19.178  0.00  0.00     0.002 A 
ATOM     24  C13 <0> d          31.399  75.278 -19.168  0.00  0.00     0.032 A 
ENDBRANCH   4  19
TORSDOF 4
ENDMDL
MODEL 2
REMARK VINA RESULT:      -7.0      4.874      8.082
REMARK  4 active torsions:
REMARK  status: ('A' for Active; 'I' for Inactive)
REMARK    1  A    between atoms: N2_4  and  C12_19 
REMARK    2  A    between atoms: C4_7  and  N3_8 
REMARK    3  A    between atoms: N4_9  and  C5_10 
REMARK    4  A    between atoms: C10_15  and  O2_16 
ROOT
ATOM      1  C1  <0> d          30.961  66.960 -24.795  0.00  0.00     0.070 C 
ATOM      2  C2  <0> d          29.887  68.015 -24.876  0.00  0.00     0.065 A 
ATOM      3  N1  <0> d          28.814  67.953 -25.562  0.00  0.00    -0.171 NA
ATOM      4  N2  <0> d          28.019  69.088 -25.439  0.00  0.00    -0.199 N 
ATOM      5  C3  <0> d          28.584  69.990 -24.609  0.00  0.00     0.277 A 
ATOM      6  O1  <0> d          28.147  71.076 -24.292  0.00  0.00    -0.268 OA
ATOM      7  C4  <0> d          29.884  69.350 -24.161  0.00  0.00     0.273 A 
ENDROOT
BRANCH   7   8
ATOM      8  N3  <0> d          29.894  69.158 -22.709  0.00  0.00    -0.171 NA
ATOM      9  N4  <0> d          28.855  69.332 -22.053  0.00  0.00    -0.152 NA
BRANCH   9  10
ATOM     10  C5  <0> d          28.865  69.153 -20.697  0.00  0.00     0.113 A 
ATOM     11  C10 <0> d          27.731  68.647 -20.046  0.00  0.00     0.098 A 
ATOM     12  C9  <0> d          27.753  68.462 -18.673  0.00  0.00     0.041 A 
ATOM     13  C8  <0> d          28.883  68.788 -17.948  0.00  0.00     0.026 A 
ATOM     14  C7  <0> d          30.004  69.294 -18.586  0.00  0.00     0.036 A 
ATOM     15  C6  <0> d          30.001  69.478 -19.953  0.00  0.00     0.060 A 
ATOM     16 Cl1  <0> d          31.417  69.698 -17.663  0.00  0.00    -0.084 Cl
BRANCH  11  17
ATOM     17  O2  <0> d          26.619  68.333 -20.758  0.00  0.00    -0.354 OA
ATOM     18  C11 <0> d          25.407  68.997 -20.396  0.00  0.00     0.210 C 
ENDBRANCH  11  17
ENDBRANCH   9  10
ENDBRANCH   7   8
BRANCH   4  19
ATOM     19  C12 <0> d          26.792  69.268 -26.087  0.00  0.00     0.061 A 
ATOM     20  C17 <0> d          25.618  69.338 -25.350  0.00  0.00     0.032 A 
ATOM     21  C16 <0> d          24.409  69.515 -25.993  0.00  0.00     0.002 A 
ATOM     22  C15 <0> d          24.366  69.622 -27.371  0.00  0.00     0.000 A 
ATOM     23  C14 <0> d          25.534  69.551 -28.110  0.00  0.00     0.002 A 
ATOM     24  C13 <0> d          26.747  69.381 -27.472  0.00  0.00     0.032 A 
ENDBRANCH   4  19
TORSDOF 4
ENDMDL
MODEL 3
REMARK VINA RESULT:      -6.6      2.028      2.457
REMARK  4 active torsions:
REMARK  status: ('A' for Active; 'I' for Inactive)
REMARK    1  A    between atoms: N2_4  and  C12_19 
REMARK    2  A    between atoms: C4_7  and  N3_8 
REMARK    3  A    between atoms: N4_9  and  C5_10 
REMARK    4  A    between atoms: C10_15  and  O2_16 
ROOT
ATOM      1  C1  <0> d          30.443  68.980 -18.406  0.00  0.00     0.070 C 
ATOM      2  C2  <0> d          29.903  70.326 -18.816  0.00  0.00     0.065 A 
ATOM      3  N1  <0> d          30.456  71.457 -18.616  0.00  0.00    -0.171 NA
ATOM      4  N2  <0> d          29.711  72.525 -19.105  0.00  0.00    -0.199 N 
ATOM      5  C3  <0> d          28.568  72.097 -19.681  0.00  0.00     0.277 A 
ATOM      6  O1  <0> d          27.705  72.773 -20.201  0.00  0.00    -0.268 OA
ATOM      7  C4  <0> d          28.597  70.587 -19.537  0.00  0.00     0.273 A 
ENDROOT
BRANCH   7   8
ATOM      8  N3  <0> d          28.595  69.941 -20.851  0.00  0.00    -0.171 NA
ATOM      9  N4  <0> d          29.444  70.256 -21.699  0.00  0.00    -0.152 NA
BRANCH   9  10
ATOM     10  C5  <0> d          29.441  69.652 -22.926  0.00  0.00     0.113 A 
ATOM     11  C10 <0> d          30.533  68.871 -23.329  0.00  0.00     0.098 A 
ATOM     12  C9  <0> d          30.518  68.256 -24.571  0.00  0.00     0.041 A 
ATOM     13  C8  <0> d          29.437  68.426 -25.414  0.00  0.00     0.026 A 
ATOM     14  C7  <0> d          28.357  69.203 -25.024  0.00  0.00     0.036 A 
ATOM     15  C6  <0> d          28.354  69.815 -23.788  0.00  0.00     0.060 A 
ATOM     16 Cl1  <0> d          27.006  69.406 -26.093  0.00  0.00    -0.084 Cl
BRANCH  11  17
ATOM     17  O2  <0> d          31.597  68.709 -22.502  0.00  0.00    -0.354 OA
ATOM     18  C11 <0> d          32.760  69.493 -22.780  0.00  0.00     0.210 C 
ENDBRANCH  11  17
ENDBRANCH   9  10
ENDBRANCH   7   8
BRANCH   4  19
ATOM     19  C12 <0> d          30.098  73.867 -19.014  0.00  0.00     0.061 A 
ATOM     20  C17 <0> d          29.243  74.801 -18.443  0.00  0.00     0.032 A 
ATOM     21  C16 <0> d          29.627  76.125 -18.356  0.00  0.00     0.002 A 
ATOM     22  C15 <0> d          30.861  76.520 -18.837  0.00  0.00     0.000 A 
ATOM     23  C14 <0> d          31.716  75.593 -19.406  0.00  0.00     0.002 A 
ATOM     24  C13 <0> d          31.340  74.267 -19.490  0.00  0.00     0.032 A 
ENDBRANCH   4  19
TORSDOF 4
ENDMDL
MODEL 4
REMARK VINA RESULT:      -6.6     15.283     18.720
REMARK  4 active torsions:
REMARK  status: ('A' for Active; 'I' for Inactive)
REMARK    1  A    between atoms: N2_4  and  C12_19 
REMARK    2  A    between atoms: C4_7  and  N3_8 
REMARK    3  A    between atoms: N4_9  and  C5_10 
REMARK    4  A    between atoms: C10_15  and  O2_16 
ROOT
ATOM      1  C1  <0> d          31.841  90.483 -23.707  0.00  0.00     0.070 C 
ATOM      2  C2  <0> d          32.969  90.869 -22.785  0.00  0.00     0.065 A 
ATOM      3  N1  <0> d          33.135  92.002 -22.224  0.00  0.00    -0.171 NA
ATOM      4  N2  <0> d          34.277  92.059 -21.431  0.00  0.00    -0.199 N 
ATOM      5  C3  <0> d          34.939  90.883 -21.449  0.00  0.00     0.277 A 
ATOM      6  O1  <0> d          35.966  90.605 -20.864  0.00  0.00    -0.268 OA
ATOM      7  C4  <0> d          34.121  89.985 -22.356  0.00  0.00     0.273 A 
ENDROOT
BRANCH   7   8
ATOM      8  N3  <0> d          33.630  88.816 -21.623  0.00  0.00    -0.171 NA
ATOM      9  N4  <0> d          32.698  88.938 -20.813  0.00  0.00    -0.152 NA
BRANCH   9  10
ATOM     10  C5  <0> d          32.240  87.846 -20.129  0.00  0.00     0.113 A 
ATOM     11  C10 <0> d          31.199  87.070 -20.658  0.00  0.00     0.098 A 
ATOM     12  C9  <0> d          30.746  85.961 -19.961  0.00  0.00     0.041 A 
ATOM     13  C8  <0> d          31.309  85.631 -18.744  0.00  0.00     0.026 A 
ATOM     14  C7  <0> d          32.334  86.399 -18.213  0.00  0.00     0.036 A 
ATOM     15  C6  <0> d          32.800  87.502 -18.897  0.00  0.00     0.060 A 
ATOM     16 Cl1  <0> d          33.031  85.971 -16.683  0.00  0.00    -0.084 Cl
BRANCH  11  17
ATOM     17  O2  <0> d          30.643  87.398 -21.852  0.00  0.00    -0.354 OA
ATOM     18  C11 <0> d          30.179  86.322 -22.670  0.00  0.00     0.210 C 
ENDBRANCH  11  17
ENDBRANCH   9  10
ENDBRANCH   7   8
BRANCH   4  19
ATOM     19  C12 <0> d          34.684  93.186 -20.709  0.00  0.00     0.061 A 
ATOM     20  C17 <0> d          34.430  93.269 -19.346  0.00  0.00     0.032 A 
ATOM     21  C16 <0> d          34.832  94.384 -18.637  0.00  0.00     0.002 A 
ATOM     22  C15 <0> d          35.485  95.417 -19.282  0.00  0.00     0.000 A 
ATOM     23  C14 <0> d          35.740  95.339 -20.640  0.00  0.00     0.002 A 
ATOM     24  C13 <0> d          35.347  94.224 -21.354  0.00  0.00     0.032 A 
ENDBRANCH   4  19
TORSDOF 4
ENDMDL
MODEL 5
REMARK VINA RESULT:      -6.4     20.359     23.381
REMARK  4 active torsions:
REMARK  status: ('A' for Active; 'I' for Inactive)
REMARK    1  A    between atoms: N2_4  and  C12_19 
REMARK    2  A    between atoms: C4_7  and  N3_8 
REMARK    3  A    between atoms: N4_9  and  C5_10 
REMARK    4  A    between atoms: C10_15  and  O2_16 
ROOT
ATOM      1  C1  <0> d          31.752  53.225  -5.746  0.00  0.00     0.070 C 
ATOM      2  C2  <0> d          30.295  53.349  -5.378  0.00  0.00     0.065 A 
ATOM      3  N1  <0> d          29.719  52.810  -4.377  0.00  0.00    -0.171 NA
ATOM      4  N2  <0> d          28.361  53.103  -4.303  0.00  0.00    -0.199 N 
ATOM      5  C3  <0> d          27.980  53.899  -5.324  0.00  0.00     0.277 A 
ATOM      6  O1  <0> d          26.869  54.334  -5.547  0.00  0.00    -0.268 OA
ATOM      7  C4  <0> d          29.242  54.133  -6.132  0.00  0.00     0.273 A 
ENDROOT
BRANCH   7   8
ATOM      8  N3  <0> d          29.582  55.557  -6.163  0.00  0.00    -0.171 NA
ATOM      9  N4  <0> d          29.967  56.080  -7.220  0.00  0.00    -0.152 NA
BRANCH   9  10
ATOM     10  C5  <0> d          30.284  57.410  -7.248  0.00  0.00     0.113 A 
ATOM     11  C10 <0> d          31.602  57.815  -7.503  0.00  0.00     0.098 A 
ATOM     12  C9  <0> d          31.912  59.165  -7.537  0.00  0.00     0.041 A 
ATOM     13  C8  <0> d          30.929  60.107  -7.305  0.00  0.00     0.026 A 
ATOM     14  C7  <0> d          29.626  59.713  -7.046  0.00  0.00     0.036 A 
ATOM     15  C6  <0> d          29.299  58.373  -7.016  0.00  0.00     0.060 A 
ATOM     16 Cl1  <0> d          28.402  60.908  -6.758  0.00  0.00    -0.084 Cl
BRANCH  11  17
ATOM     17  O2  <0> d          32.568  56.888  -7.725  0.00  0.00    -0.354 OA
ATOM     18  C11 <0> d          33.353  56.486  -6.600  0.00  0.00     0.210 C 
ENDBRANCH  11  17
ENDBRANCH   9  10
ENDBRANCH   7   8
BRANCH   4  19
ATOM     19  C12 <0> d          27.503  52.636  -3.301  0.00  0.00     0.061 A 
ATOM     20  C17 <0> d          26.763  51.479  -3.501  0.00  0.00     0.032 A 
ATOM     21  C16 <0> d          25.917  51.021  -2.510  0.00  0.00     0.002 A 
ATOM     22  C15 <0> d          25.806  51.715  -1.320  0.00  0.00     0.000 A 
ATOM     23  C14 <0> d          26.541  52.868  -1.116  0.00  0.00     0.002 A 
ATOM     24  C13 <0> d          27.394  53.328  -2.100  0.00  0.00     0.032 A 
ENDBRANCH   4  19
TORSDOF 4
ENDMDL
MODEL 6
REMARK VINA RESULT:      -6.3      4.759      6.313
REMARK  4 active torsions:
REMARK  status: ('A' for Active; 'I' for Inactive)
REMARK    1  A    between atoms: N2_4  and  C12_19 
REMARK    2  A    between atoms: C4_7  and  N3_8 
REMARK    3  A    between atoms: N4_9  and  C5_10 
REMARK    4  A    between atoms: C10_15  and  O2_16 
ROOT
ATOM      1  C1  <0> d          24.771  70.688 -22.324  0.00  0.00     0.070 C 
ATOM      2  C2  <0> d          26.242  70.886 -22.062  0.00  0.00     0.065 A 
ATOM      3  N1  <0> d          26.862  70.612 -20.983  0.00  0.00    -0.171 NA
ATOM      4  N2  <0> d          28.219  70.912 -21.040  0.00  0.00    -0.199 N 
ATOM      5  C3  <0> d          28.553  71.425 -22.243  0.00  0.00     0.277 A 
ATOM      6  O1  <0> d          29.651  71.785 -22.613  0.00  0.00    -0.268 OA
ATOM      7  C4  <0> d          27.258  71.452 -23.032  0.00  0.00     0.273 A 
ENDROOT
BRANCH   7   8
ATOM      8  N3  <0> d          27.359  70.608 -24.224  0.00  0.00    -0.171 NA
ATOM      9  N4  <0> d          27.390  71.127 -25.351  0.00  0.00    -0.152 NA
BRANCH   9  10
ATOM     10  C5  <0> d          27.485  70.339 -26.464  0.00  0.00     0.113 A 
ATOM     11  C10 <0> d          26.765  70.666 -27.622  0.00  0.00     0.098 A 
ATOM     12  C9  <0> d          26.873  69.865 -28.748  0.00  0.00     0.041 A 
ATOM     13  C8  <0> d          27.675  68.741 -28.723  0.00  0.00     0.026 A 
ATOM     14  C7  <0> d          28.383  68.409 -27.579  0.00  0.00     0.036 A 
ATOM     15  C6  <0> d          28.292  69.200 -26.452  0.00  0.00     0.060 A 
ATOM     16 Cl1  <0> d          29.388  66.994 -27.563  0.00  0.00    -0.084 Cl
BRANCH  11  17
ATOM     17  O2  <0> d          25.972  71.768 -27.643  0.00  0.00    -0.354 OA
ATOM     18  C11 <0> d          24.577  71.559 -27.869  0.00  0.00     0.210 C 
ENDBRANCH  11  17
ENDBRANCH   9  10
ENDBRANCH   7   8
BRANCH   4  19
ATOM     19  C12 <0> d          29.121  70.706 -19.989  0.00  0.00     0.061 A 
ATOM     20  C17 <0> d          29.682  69.452 -19.789  0.00  0.00     0.032 A 
ATOM     21  C16 <0> d          30.570  69.252 -18.751  0.00  0.00     0.002 A 
ATOM     22  C15 <0> d          30.900  70.298 -17.910  0.00  0.00     0.000 A 
ATOM     23  C14 <0> d          30.342  71.549 -18.105  0.00  0.00     0.002 A 
ATOM     24  C13 <0> d          29.458  71.757 -19.146  0.00  0.00     0.032 A 
ENDBRANCH   4  19
TORSDOF 4
ENDMDL
MODEL 7
REMARK VINA RESULT:      -6.2      9.226     11.672
REMARK  4 active torsions:
REMARK  status: ('A' for Active; 'I' for Inactive)
REMARK    1  A    between atoms: N2_4  and  C12_19 
REMARK    2  A    between atoms: C4_7  and  N3_8 
REMARK    3  A    between atoms: N4_9  and  C5_10 
REMARK    4  A    between atoms: C10_15  and  O2_16 
ROOT
ATOM      1  C1  <0> d          25.955  72.967 -27.375  0.00  0.00     0.070 C 
ATOM      2  C2  <0> d          26.320  71.505 -27.396  0.00  0.00     0.065 A 
ATOM      3  N1  <0> d          27.268  70.952 -26.746  0.00  0.00    -0.171 NA
ATOM      4  N2  <0> d          27.362  69.583 -26.975  0.00  0.00    -0.199 N 
ATOM      5  C3  <0> d          26.413  69.168 -27.840  0.00  0.00     0.277 A 
ATOM      6  O1  <0> d          26.225  68.039 -28.244  0.00  0.00    -0.268 OA
ATOM      7  C4  <0> d          25.634  70.419 -28.197  0.00  0.00     0.273 A 
ENDROOT
BRANCH   7   8
ATOM      8  N3  <0> d          24.232  70.288 -27.795  0.00  0.00    -0.171 NA
ATOM      9  N4  <0> d          23.330  70.671 -28.556  0.00  0.00    -0.152 NA
BRANCH   9  10
ATOM     10  C5  <0> d          22.020  70.548 -28.178  0.00  0.00     0.113 A 
ATOM     11  C10 <0> d          21.062  70.100 -29.098  0.00  0.00     0.098 A 
ATOM     12  C9  <0> d          19.739  69.972 -28.705  0.00  0.00     0.041 A 
ATOM     13  C8  <0> d          19.365  70.299 -27.416  0.00  0.00     0.026 A 
ATOM     14  C7  <0> d          20.307  70.750 -26.505  0.00  0.00     0.036 A 
ATOM     15  C6  <0> d          21.629  70.876 -26.879  0.00  0.00     0.060 A 
ATOM     16 Cl1  <0> d          19.823  71.156 -24.889  0.00  0.00    -0.084 Cl
BRANCH  11  17
ATOM     17  O2  <0> d          21.429  69.784 -30.366  0.00  0.00    -0.354 OA
ATOM     18  C11 <0> d          20.957  70.637 -31.411  0.00  0.00     0.210 C 
ENDBRANCH  11  17
ENDBRANCH   9  10
ENDBRANCH   7   8
BRANCH   4  19
ATOM     19  C12 <0> d          28.315  68.746 -26.383  0.00  0.00     0.061 A 
ATOM     20  C17 <0> d          28.553  68.818 -25.017  0.00  0.00     0.032 A 
ATOM     21  C16 <0> d          29.494  67.991 -24.436  0.00  0.00     0.002 A 
ATOM     22  C15 <0> d          30.201  67.092 -25.214  0.00  0.00     0.000 A 
ATOM     23  C14 <0> d          29.967  67.018 -26.576  0.00  0.00     0.002 A 
ATOM     24  C13 <0> d          29.022  67.837 -27.161  0.00  0.00     0.032 A 
ENDBRANCH   4  19
TORSDOF 4
ENDMDL
MODEL 8
REMARK VINA RESULT:      -6.2      8.094     10.695
REMARK  4 active torsions:
REMARK  status: ('A' for Active; 'I' for Inactive)
REMARK    1  A    between atoms: N2_4  and  C12_19 
REMARK    2  A    between atoms: C4_7  and  N3_8 
REMARK    3  A    between atoms: N4_9  and  C5_10 
REMARK    4  A    between atoms: C10_15  and  O2_16 
ROOT
ATOM      1  C1  <0> d          26.738  73.232 -27.182  0.00  0.00     0.070 C 
ATOM      2  C2  <0> d          27.056  71.762 -27.273  0.00  0.00     0.065 A 
ATOM      3  N1  <0> d          27.794  71.096 -26.474  0.00  0.00    -0.171 NA
ATOM      4  N2  <0> d          27.904  69.753 -26.822  0.00  0.00    -0.199 N 
ATOM      5  C3  <0> d          27.192  69.479 -27.935  0.00  0.00     0.277 A 
ATOM      6  O1  <0> d          27.080  68.408 -28.495  0.00  0.00    -0.268 OA
ATOM      7  C4  <0> d          26.562  70.800 -28.334  0.00  0.00     0.273 A 
ENDROOT
BRANCH   7   8
ATOM      8  N3  <0> d          25.101  70.707 -28.306  0.00  0.00    -0.171 NA
ATOM      9  N4  <0> d          24.515  70.461 -27.241  0.00  0.00    -0.152 NA
BRANCH   9  10
ATOM     10  C5  <0> d          23.150  70.375 -27.217  0.00  0.00     0.113 A 
ATOM     11  C10 <0> d          22.420  71.038 -26.221  0.00  0.00     0.098 A 
ATOM     12  C9  <0> d          21.037  70.951 -26.208  0.00  0.00     0.041 A 
ATOM     13  C8  <0> d          20.382  70.201 -27.166  0.00  0.00     0.026 A 
ATOM     14  C7  <0> d          21.099  69.537 -28.149  0.00  0.00     0.036 A 
ATOM     15  C6  <0> d          22.476  69.620 -28.179  0.00  0.00     0.060 A 
ATOM     16 Cl1  <0> d          20.263  68.600 -29.346  0.00  0.00    -0.084 Cl
BRANCH  11  17
ATOM     17  O2  <0> d          23.064  71.770 -25.277  0.00  0.00    -0.354 OA
ATOM     18  C11 <0> d          22.815  73.178 -25.265  0.00  0.00     0.210 C 
ENDBRANCH  11  17
ENDBRANCH   9  10
ENDBRANCH   7   8
BRANCH   4  19
ATOM     19  C12 <0> d          28.653  68.810 -26.109  0.00  0.00     0.061 A 
ATOM     20  C17 <0> d          28.785  68.922 -24.731  0.00  0.00     0.032 A 
ATOM     21  C16 <0> d          29.526  67.990 -24.031  0.00  0.00     0.002 A 
ATOM     22  C15 <0> d          30.138  66.947 -24.701  0.00  0.00     0.000 A 
ATOM     23  C14 <0> d          30.010  66.833 -26.074  0.00  0.00     0.002 A 
ATOM     24  C13 <0> d          29.265  67.757 -26.779  0.00  0.00     0.032 A 
ENDBRANCH   4  19
TORSDOF 4
ENDMDL
MODEL 9
REMARK VINA RESULT:      -6.1     19.171     21.996
REMARK  4 active torsions:
REMARK  status: ('A' for Active; 'I' for Inactive)
REMARK    1  A    between atoms: N2_4  and  C12_19 
REMARK    2  A    between atoms: C4_7  and  N3_8 
REMARK    3  A    between atoms: N4_9  and  C5_10 
REMARK    4  A    between atoms: C10_15  and  O2_16 
ROOT
ATOM      1  C1  <0> d          32.783  59.415  -3.847  0.00  0.00     0.070 C 
ATOM      2  C2  <0> d          32.810  58.396  -4.958  0.00  0.00     0.065 A 
ATOM      3  N1  <0> d          33.452  57.294  -4.959  0.00  0.00    -0.171 NA
ATOM      4  N2  <0> d          33.286  56.566  -6.133  0.00  0.00    -0.199 N 
ATOM      5  C3  <0> d          32.473  57.212  -6.995  0.00  0.00     0.277 A 
ATOM      6  O1  <0> d          32.128  56.846  -8.100  0.00  0.00    -0.268 OA
ATOM      7  C4  <0> d          32.084  58.493  -6.283  0.00  0.00     0.273 A 
ENDROOT
BRANCH   7   8
ATOM      8  N3  <0> d          30.636  58.552  -6.076  0.00  0.00    -0.171 NA
ATOM      9  N4  <0> d          30.005  57.519  -5.807  0.00  0.00    -0.152 NA
BRANCH   9  10
ATOM     10  C5  <0> d          28.652  57.575  -5.614  0.00  0.00     0.113 A 
ATOM     11  C10 <0> d          27.783  57.577  -6.713  0.00  0.00     0.098 A 
ATOM     12  C9  <0> d          26.413  57.627  -6.507  0.00  0.00     0.041 A 
ATOM     13  C8  <0> d          25.908  57.689  -5.223  0.00  0.00     0.026 A 
ATOM     14  C7  <0> d          26.763  57.695  -4.132  0.00  0.00     0.036 A 
ATOM     15  C6  <0> d          28.129  57.638  -4.320  0.00  0.00     0.060 A 
ATOM     16 Cl1  <0> d          26.115  57.772  -2.525  0.00  0.00    -0.084 Cl
BRANCH  11  17
ATOM     17  O2  <0> d          28.280  57.521  -7.975  0.00  0.00    -0.354 OA
ATOM     18  C11 <0> d          27.774  58.472  -8.915  0.00  0.00     0.210 C 
ENDBRANCH  11  17
ENDBRANCH   9  10
ENDBRANCH   7   8
BRANCH   4  19
ATOM     19  C12 <0> d          33.881  55.324  -6.385  0.00  0.00     0.061 A 
ATOM     20  C17 <0> d          35.257  55.231  -6.545  0.00  0.00     0.032 A 
ATOM     21  C16 <0> d          35.841  54.005  -6.794  0.00  0.00     0.002 A 
ATOM     22  C15 <0> d          35.056  52.870  -6.885  0.00  0.00     0.000 A 
ATOM     23  C14 <0> d          33.685  52.959  -6.727  0.00  0.00     0.002 A 
ATOM     24  C13 <0> d          33.096  54.181  -6.471  0.00  0.00     0.032 A 
ENDBRANCH   4  19
TORSDOF 4
ENDMDL
MODEL 10
REMARK VINA RESULT:      -6.0     43.322     45.407
REMARK  4 active torsions:
REMARK  status: ('A' for Active; 'I' for Inactive)
REMARK    1  A    between atoms: N2_4  and  C12_19 
REMARK    2  A    between atoms: C4_7  and  N3_8 
REMARK    3  A    between atoms: N4_9  and  C5_10 
REMARK    4  A    between atoms: C10_15  and  O2_16 
ROOT
ATOM      1  C1  <0> d          -0.862  38.490 -24.305  0.00  0.00     0.070 C 
ATOM      2  C2  <0> d          -1.717  38.974 -23.162  0.00  0.00     0.065 A 
ATOM      3  N1  <0> d          -2.084  38.291 -22.149  0.00  0.00    -0.171 NA
ATOM      4  N2  <0> d          -2.876  39.012 -21.261  0.00  0.00    -0.199 N 
ATOM      5  C3  <0> d          -3.066  40.276 -21.695  0.00  0.00     0.277 A 
ATOM      6  O1  <0> d          -3.705  41.154 -21.153  0.00  0.00    -0.268 OA
ATOM      7  C4  <0> d          -2.306  40.360 -23.004  0.00  0.00     0.273 A 
ENDROOT
BRANCH   7   8
ATOM      8  N3  <0> d          -1.245  41.366 -22.925  0.00  0.00    -0.171 NA
ATOM      9  N4  <0> d          -1.163  42.251 -23.790  0.00  0.00    -0.152 NA
BRANCH   9  10
ATOM     10  C5  <0> d          -0.171  43.190 -23.715  0.00  0.00     0.113 A 
ATOM     11  C10 <0> d          -0.332  44.436 -24.337  0.00  0.00     0.098 A 
ATOM     12  C9  <0> d           0.675  45.383 -24.250  0.00  0.00     0.041 A 
ATOM     13  C8  <0> d           1.839  45.095 -23.564  0.00  0.00     0.026 A 
ATOM     14  C7  <0> d           2.007  43.863 -22.952  0.00  0.00     0.036 A 
ATOM     15  C6  <0> d           1.011  42.911 -23.025  0.00  0.00     0.060 A 
ATOM     16 Cl1  <0> d           3.474  43.516 -22.094  0.00  0.00    -0.084 Cl
BRANCH  11  17
ATOM     17  O2  <0> d          -1.474  44.716 -25.016  0.00  0.00    -0.354 OA
ATOM     18  C11 <0> d          -1.546  45.985 -25.669  0.00  0.00     0.210 C 
ENDBRANCH  11  17
ENDBRANCH   9  10
ENDBRANCH   7   8
BRANCH   4  19
ATOM     19  C12 <0> d          -3.406  38.494 -20.073  0.00  0.00     0.061 A 
ATOM     20  C17 <0> d          -4.623  37.826 -20.086  0.00  0.00     0.032 A 
ATOM     21  C16 <0> d          -5.142  37.317 -18.912  0.00  0.00     0.002 A 
ATOM     22  C15 <0> d          -4.453  37.474 -17.724  0.00  0.00     0.000 A 
ATOM     23  C14 <0> d          -3.241  38.140 -17.707  0.00  0.00     0.002 A 
ATOM     24  C13 <0> d          -2.712  38.645 -18.879  0.00  0.00     0.032 A 
ENDBRANCH   4  19
TORSDOF 4
ENDMDL
