MODEL 1
REMARK VINA RESULT:      -7.1      0.000      0.000
REMARK  4 active torsions:
REMARK  status: ('A' for Active; 'I' for Inactive)
REMARK    1  A    between atoms: N2_4  and  C12_19 
REMARK    2  A    between atoms: C4_7  and  N3_8 
REMARK    3  A    between atoms: N4_9  and  C5_10 
REMARK    4  A    between atoms: C10_15  and  O2_16 
ROOT
ATOM      1  C1  <0> d          29.831  67.354 -26.532  0.00  0.00     0.070 C 
ATOM      2  C2  <0> d          28.795  68.446 -26.444  0.00  0.00     0.065 A 
ATOM      3  N1  <0> d          27.673  68.474 -27.049  0.00  0.00    -0.171 NA
ATOM      4  N2  <0> d          26.928  69.616 -26.767  0.00  0.00    -0.199 N 
ATOM      5  C3  <0> d          27.585  70.426 -25.910  0.00  0.00     0.277 A 
ATOM      6  O1  <0> d          27.212  71.491 -25.468  0.00  0.00    -0.268 OA
ATOM      7  C4  <0> d          28.892  69.712 -25.620  0.00  0.00     0.273 A 
ENDROOT
BRANCH   7   8
ATOM      8  N3  <0> d          28.999  69.392 -24.194  0.00  0.00    -0.171 NA
ATOM      9  N4  <0> d          29.464  70.228 -23.405  0.00  0.00    -0.152 NA
BRANCH   9  10
ATOM     10  C5  <0> d          29.564  69.930 -22.075  0.00  0.00     0.112 A 
ATOM     11  C10 <0> d          30.768  70.154 -21.390  0.00  0.00     0.100 A 
ATOM     12  C9  <0> d          30.859  69.848 -20.042  0.00  0.00     0.063 A 
ATOM     13  C8  <0> d          29.767  69.324 -19.375  0.00  0.00     0.036 A 
ATOM     14  C7  <0> d          28.576  69.101 -20.047  0.00  0.00     0.026 A 
ATOM     15 Cl1  <0> d          29.890  68.943 -17.685  0.00  0.00    -0.084 Cl
ATOM     16  C6  <0> d          28.467  69.406 -21.387  0.00  0.00     0.038 A 
BRANCH  11  17
ATOM     17  O2  <0> d          31.839  70.667 -22.048  0.00  0.00    -0.353 OA
ATOM     18  C11 <0> d          32.924  69.774 -22.315  0.00  0.00     0.210 C 
ENDBRANCH  11  17
ENDBRANCH   9  10
ENDBRANCH   7   8
BRANCH   4  19
ATOM     19  C12 <0> d          25.664  69.889 -27.302  0.00  0.00     0.061 A 
ATOM     20  C17 <0> d          24.536  69.280 -26.769  0.00  0.00     0.032 A 
ATOM     21  C16 <0> d          23.289  69.553 -27.299  0.00  0.00     0.002 A 
ATOM     22  C15 <0> d          23.166  70.431 -28.360  0.00  0.00     0.000 A 
ATOM     23  C14 <0> d          24.286  71.040 -28.892  0.00  0.00     0.002 A 
ATOM     24  C13 <0> d          25.535  70.776 -28.363  0.00  0.00     0.032 A 
ENDBRANCH   4  19
TORSDOF 4
ENDMDL
MODEL 2
REMARK VINA RESULT:      -6.8      3.318      7.464
REMARK  4 active torsions:
REMARK  status: ('A' for Active; 'I' for Inactive)
REMARK    1  A    between atoms: N2_4  and  C12_19 
REMARK    2  A    between atoms: C4_7  and  N3_8 
REMARK    3  A    between atoms: N4_9  and  C5_10 
REMARK    4  A    between atoms: C10_15  and  O2_16 
ROOT
ATOM      1  C1  <0> d          26.583  68.432 -20.421  0.00  0.00     0.070 C 
ATOM      2  C2  <0> d          27.605  69.291 -21.121  0.00  0.00     0.065 A 
ATOM      3  N1  <0> d          28.811  68.969 -21.384  0.00  0.00    -0.171 NA
ATOM      4  N2  <0> d          29.514  69.975 -22.042  0.00  0.00    -0.199 N 
ATOM      5  C3  <0> d          28.737  71.060 -22.243  0.00  0.00     0.277 A 
ATOM      6  O1  <0> d          29.047  72.099 -22.785  0.00  0.00    -0.268 OA
ATOM      7  C4  <0> d          27.392  70.696 -21.644  0.00  0.00     0.273 A 
ENDROOT
BRANCH   7   8
ATOM      8  N3  <0> d          26.348  70.711 -22.672  0.00  0.00    -0.171 NA
ATOM      9  N4  <0> d          26.454  69.985 -23.672  0.00  0.00    -0.152 NA
BRANCH   9  10
ATOM     10  C5  <0> d          25.481  70.000 -24.632  0.00  0.00     0.112 A 
ATOM     11  C10 <0> d          25.726  69.441 -25.895  0.00  0.00     0.100 A 
ATOM     12  C9  <0> d          24.733  69.461 -26.860  0.00  0.00     0.063 A 
ATOM     13  C8  <0> d          23.504  70.028 -26.579  0.00  0.00     0.036 A 
ATOM     14  C7  <0> d          23.257  70.582 -25.331  0.00  0.00     0.026 A 
ATOM     15 Cl1  <0> d          22.264  70.049 -27.794  0.00  0.00    -0.084 Cl
ATOM     16  C6  <0> d          24.232  70.564 -24.358  0.00  0.00     0.038 A 
BRANCH  11  17
ATOM     17  O2  <0> d          26.934  68.886 -26.169  0.00  0.00    -0.353 OA
ATOM     18  C11 <0> d          27.862  69.684 -26.909  0.00  0.00     0.210 C 
ENDBRANCH  11  17
ENDBRANCH   9  10
ENDBRANCH   7   8
BRANCH   4  19
ATOM     19  C12 <0> d          30.852  69.874 -22.442  0.00  0.00     0.061 A 
ATOM     20  C17 <0> d          31.819  70.666 -21.839  0.00  0.00     0.032 A 
ATOM     21  C16 <0> d          33.139  70.563 -22.235  0.00  0.00     0.002 A 
ATOM     22  C15 <0> d          33.496  69.673 -23.231  0.00  0.00     0.000 A 
ATOM     23  C14 <0> d          32.535  68.882 -23.832  0.00  0.00     0.002 A 
ATOM     24  C13 <0> d          31.214  68.976 -23.437  0.00  0.00     0.032 A 
ENDBRANCH   4  19
TORSDOF 4
ENDMDL
MODEL 3
REMARK VINA RESULT:      -6.6      4.241      6.591
REMARK  4 active torsions:
REMARK  status: ('A' for Active; 'I' for Inactive)
REMARK    1  A    between atoms: N2_4  and  C12_19 
REMARK    2  A    between atoms: C4_7  and  N3_8 
REMARK    3  A    between atoms: N4_9  and  C5_10 
REMARK    4  A    between atoms: C10_15  and  O2_16 
ROOT
ATOM      1  C1  <0> d          28.321  71.134 -17.428  0.00  0.00     0.070 C 
ATOM      2  C2  <0> d          27.489  70.084 -18.117  0.00  0.00     0.065 A 
ATOM      3  N1  <0> d          26.280  70.210 -18.504  0.00  0.00    -0.171 NA
ATOM      4  N2  <0> d          25.778  69.063 -19.112  0.00  0.00    -0.199 N 
ATOM      5  C3  <0> d          26.706  68.083 -19.144  0.00  0.00     0.277 A 
ATOM      6  O1  <0> d          26.585  66.967 -19.603  0.00  0.00    -0.268 OA
ATOM      7  C4  <0> d          27.931  68.682 -18.480  0.00  0.00     0.273 A 
ENDROOT
BRANCH   7   8
ATOM      8  N3  <0> d          29.057  68.723 -19.417  0.00  0.00    -0.171 NA
ATOM      9  N4  <0> d          29.017  69.479 -20.400  0.00  0.00    -0.152 NA
BRANCH   9  10
ATOM     10  C5  <0> d          30.067  69.516 -21.274  0.00  0.00     0.112 A 
ATOM     11  C10 <0> d          29.910  69.044 -22.585  0.00  0.00     0.100 A 
ATOM     12  C9  <0> d          30.981  69.087 -23.464  0.00  0.00     0.063 A 
ATOM     13  C8  <0> d          32.198  69.594 -23.049  0.00  0.00     0.036 A 
ATOM     14  C7  <0> d          32.358  70.062 -21.754  0.00  0.00     0.026 A 
ATOM     15 Cl1  <0> d          33.535  69.643 -24.157  0.00  0.00    -0.084 Cl
ATOM     16  C6  <0> d          31.301  70.032 -20.870  0.00  0.00     0.038 A 
BRANCH  11  17
ATOM     17  O2  <0> d          28.714  68.546 -22.990  0.00  0.00    -0.353 OA
ATOM     18  C11 <0> d          27.944  69.356 -23.882  0.00  0.00     0.210 C 
ENDBRANCH  11  17
ENDBRANCH   9  10
ENDBRANCH   7   8
BRANCH   4  19
ATOM     19  C12 <0> d          24.480  68.941 -19.623  0.00  0.00     0.061 A 
ATOM     20  C17 <0> d          23.474  68.389 -18.842  0.00  0.00     0.032 A 
ATOM     21  C16 <0> d          22.194  68.272 -19.348  0.00  0.00     0.002 A 
ATOM     22  C15 <0> d          21.916  68.702 -20.632  0.00  0.00     0.000 A 
ATOM     23  C14 <0> d          22.915  69.253 -21.412  0.00  0.00     0.002 A 
ATOM     24  C13 <0> d          24.196  69.379 -20.910  0.00  0.00     0.032 A 
ENDBRANCH   4  19
TORSDOF 4
ENDMDL
MODEL 4
REMARK VINA RESULT:      -6.5      4.860      7.559
REMARK  4 active torsions:
REMARK  status: ('A' for Active; 'I' for Inactive)
REMARK    1  A    between atoms: N2_4  and  C12_19 
REMARK    2  A    between atoms: C4_7  and  N3_8 
REMARK    3  A    between atoms: N4_9  and  C5_10 
REMARK    4  A    between atoms: C10_15  and  O2_16 
ROOT
ATOM      1  C1  <0> d          29.210  71.026 -17.559  0.00  0.00     0.070 C 
ATOM      2  C2  <0> d          29.537  71.162 -19.024  0.00  0.00     0.065 A 
ATOM      3  N1  <0> d          30.498  70.593 -19.641  0.00  0.00    -0.171 NA
ATOM      4  N2  <0> d          30.543  70.912 -20.995  0.00  0.00    -0.199 N 
ATOM      5  C3  <0> d          29.544  71.756 -21.330  0.00  0.00     0.277 A 
ATOM      6  O1  <0> d          29.306  72.221 -22.424  0.00  0.00    -0.268 OA
ATOM      7  C4  <0> d          28.785  71.996 -20.039  0.00  0.00     0.273 A 
ENDROOT
BRANCH   7   8
ATOM      8  N3  <0> d          27.400  71.534 -20.163  0.00  0.00    -0.171 NA
ATOM      9  N4  <0> d          27.148  70.320 -20.147  0.00  0.00    -0.152 NA
BRANCH   9  10
ATOM     10  C5  <0> d          25.856  69.889 -20.262  0.00  0.00     0.112 A 
ATOM     11  C10 <0> d          25.090  69.640 -19.114  0.00  0.00     0.100 A 
ATOM     12  C9  <0> d          23.782  69.204 -19.242  0.00  0.00     0.063 A 
ATOM     13  C8  <0> d          23.234  69.015 -20.498  0.00  0.00     0.036 A 
ATOM     14  C7  <0> d          23.987  69.259 -21.635  0.00  0.00     0.026 A 
ATOM     15 Cl1  <0> d          21.593  68.468 -20.649  0.00  0.00    -0.084 Cl
ATOM     16  C6  <0> d          25.289  69.700 -21.525  0.00  0.00     0.038 A 
BRANCH  11  17
ATOM     17  O2  <0> d          25.631  69.825 -17.883  0.00  0.00    -0.353 OA
ATOM     18  C11 <0> d          25.160  70.947 -17.131  0.00  0.00     0.210 C 
ENDBRANCH  11  17
ENDBRANCH   9  10
ENDBRANCH   7   8
BRANCH   4  19
ATOM     19  C12 <0> d          31.499  70.421 -21.893  0.00  0.00     0.061 A 
ATOM     20  C17 <0> d          32.693  71.104 -22.079  0.00  0.00     0.032 A 
ATOM     21  C16 <0> d          33.635  70.617 -22.964  0.00  0.00     0.002 A 
ATOM     22  C15 <0> d          33.389  69.451 -23.664  0.00  0.00     0.000 A 
ATOM     23  C14 <0> d          32.202  68.768 -23.480  0.00  0.00     0.002 A 
ATOM     24  C13 <0> d          31.257  69.246 -22.592  0.00  0.00     0.032 A 
ENDBRANCH   4  19
TORSDOF 4
ENDMDL
MODEL 5
REMARK VINA RESULT:      -6.5      4.119      7.441
REMARK  4 active torsions:
REMARK  status: ('A' for Active; 'I' for Inactive)
REMARK    1  A    between atoms: N2_4  and  C12_19 
REMARK    2  A    between atoms: C4_7  and  N3_8 
REMARK    3  A    between atoms: N4_9  and  C5_10 
REMARK    4  A    between atoms: C10_15  and  O2_16 
ROOT
ATOM      1  C1  <0> d          29.221  71.331 -17.497  0.00  0.00     0.070 C 
ATOM      2  C2  <0> d          29.529  71.386 -18.972  0.00  0.00     0.065 A 
ATOM      3  N1  <0> d          30.490  70.795 -19.566  0.00  0.00    -0.171 NA
ATOM      4  N2  <0> d          30.515  71.036 -20.937  0.00  0.00    -0.199 N 
ATOM      5  C3  <0> d          29.503  71.848 -21.308  0.00  0.00     0.277 A 
ATOM      6  O1  <0> d          29.247  72.246 -22.424  0.00  0.00    -0.268 OA
ATOM      7  C4  <0> d          28.755  72.153 -20.023  0.00  0.00     0.273 A 
ENDROOT
BRANCH   7   8
ATOM      8  N3  <0> d          27.375  71.668 -20.104  0.00  0.00    -0.171 NA
ATOM      9  N4  <0> d          27.151  70.478 -20.370  0.00  0.00    -0.152 NA
BRANCH   9  10
ATOM     10  C5  <0> d          25.863  70.026 -20.446  0.00  0.00     0.112 A 
ATOM     11  C10 <0> d          25.289  69.736 -21.692  0.00  0.00     0.100 A 
ATOM     12  C9  <0> d          23.983  69.278 -21.757  0.00  0.00     0.063 A 
ATOM     13  C8  <0> d          23.249  69.108 -20.598  0.00  0.00     0.036 A 
ATOM     14  C7  <0> d          23.813  69.393 -19.364  0.00  0.00     0.026 A 
ATOM     15 Cl1  <0> d          21.613  68.534 -20.688  0.00  0.00    -0.084 Cl
ATOM     16  C6  <0> d          25.113  69.843 -19.281  0.00  0.00     0.038 A 
BRANCH  11  17
ATOM     17  O2  <0> d          26.011  69.905 -22.829  0.00  0.00    -0.353 OA
ATOM     18  C11 <0> d          25.437  69.407 -24.041  0.00  0.00     0.210 C 
ENDBRANCH  11  17
ENDBRANCH   9  10
ENDBRANCH   7   8
BRANCH   4  19
ATOM     19  C12 <0> d          31.467  70.506 -21.816  0.00  0.00     0.061 A 
ATOM     20  C17 <0> d          32.666  71.174 -22.029  0.00  0.00     0.032 A 
ATOM     21  C16 <0> d          33.603  70.647 -22.897  0.00  0.00     0.002 A 
ATOM     22  C15 <0> d          33.349  69.457 -23.552  0.00  0.00     0.000 A 
ATOM     23  C14 <0> d          32.158  68.789 -23.341  0.00  0.00     0.002 A 
ATOM     24  C13 <0> d          31.218  69.307 -22.471  0.00  0.00     0.032 A 
ENDBRANCH   4  19
TORSDOF 4
ENDMDL
MODEL 6
REMARK VINA RESULT:      -6.1     40.107     42.524
REMARK  4 active torsions:
REMARK  status: ('A' for Active; 'I' for Inactive)
REMARK    1  A    between atoms: N2_4  and  C12_19 
REMARK    2  A    between atoms: C4_7  and  N3_8 
REMARK    3  A    between atoms: N4_9  and  C5_10 
REMARK    4  A    between atoms: C10_15  and  O2_16 
ROOT
ATOM      1  C1  <0> d          -4.443  39.581 -22.772  0.00  0.00     0.070 C 
ATOM      2  C2  <0> d          -3.689  39.423 -21.476  0.00  0.00     0.065 A 
ATOM      3  N1  <0> d          -3.879  38.519 -20.596  0.00  0.00    -0.171 NA
ATOM      4  N2  <0> d          -3.023  38.632 -19.504  0.00  0.00    -0.199 N 
ATOM      5  C3  <0> d          -2.190  39.685 -19.644  0.00  0.00     0.277 A 
ATOM      6  O1  <0> d          -1.330  40.054 -18.874  0.00  0.00    -0.268 OA
ATOM      7  C4  <0> d          -2.565  40.305 -20.977  0.00  0.00     0.273 A 
ENDROOT
BRANCH   7   8
ATOM      8  N3  <0> d          -1.429  40.265 -21.902  0.00  0.00    -0.171 NA
ATOM      9  N4  <0> d          -1.024  41.311 -22.432  0.00  0.00    -0.152 NA
BRANCH   9  10
ATOM     10  C5  <0> d           0.036  41.273 -23.294  0.00  0.00     0.112 A 
ATOM     11  C10 <0> d           0.945  42.340 -23.342  0.00  0.00     0.100 A 
ATOM     12  C9  <0> d           2.015  42.292 -24.220  0.00  0.00     0.063 A 
ATOM     13  C8  <0> d           2.187  41.195 -25.045  0.00  0.00     0.036 A 
ATOM     14  C7  <0> d           1.290  40.139 -25.001  0.00  0.00     0.026 A 
ATOM     15 Cl1  <0> d           3.531  41.143 -26.142  0.00  0.00    -0.084 Cl
ATOM     16  C6  <0> d           0.224  40.169 -24.129  0.00  0.00     0.038 A 
BRANCH  11  17
ATOM     17  O2  <0> d           0.774  43.416 -22.532  0.00  0.00    -0.353 OA
ATOM     18  C11 <0> d           1.955  44.009 -21.985  0.00  0.00     0.210 C 
ENDBRANCH  11  17
ENDBRANCH   9  10
ENDBRANCH   7   8
BRANCH   4  19
ATOM     19  C12 <0> d          -3.026  37.767 -18.403  0.00  0.00     0.061 A 
ATOM     20  C17 <0> d          -3.990  37.905 -17.413  0.00  0.00     0.032 A 
ATOM     21  C16 <0> d          -3.991  37.049 -16.329  0.00  0.00     0.002 A 
ATOM     22  C15 <0> d          -3.034  36.056 -16.229  0.00  0.00     0.000 A 
ATOM     23  C14 <0> d          -2.074  35.916 -17.214  0.00  0.00     0.002 A 
ATOM     24  C13 <0> d          -2.070  36.764 -18.304  0.00  0.00     0.032 A 
ENDBRANCH   4  19
TORSDOF 4
ENDMDL
MODEL 7
REMARK VINA RESULT:      -6.0      3.414      7.972
REMARK  4 active torsions:
REMARK  status: ('A' for Active; 'I' for Inactive)
REMARK    1  A    between atoms: N2_4  and  C12_19 
REMARK    2  A    between atoms: C4_7  and  N3_8 
REMARK    3  A    between atoms: N4_9  and  C5_10 
REMARK    4  A    between atoms: C10_15  and  O2_16 
ROOT
ATOM      1  C1  <0> d          30.218  68.683 -25.062  0.00  0.00     0.070 C 
ATOM      2  C2  <0> d          29.639  69.048 -23.719  0.00  0.00     0.065 A 
ATOM      3  N1  <0> d          30.264  69.586 -22.746  0.00  0.00    -0.171 NA
ATOM      4  N2  <0> d          29.458  69.805 -21.632  0.00  0.00    -0.199 N 
ATOM      5  C3  <0> d          28.194  69.389 -21.856  0.00  0.00     0.277 A 
ATOM      6  O1  <0> d          27.254  69.438 -21.092  0.00  0.00    -0.268 OA
ATOM      7  C4  <0> d          28.206  68.846 -23.273  0.00  0.00     0.273 A 
ENDROOT
BRANCH   7   8
ATOM      8  N3  <0> d          27.288  69.608 -24.124  0.00  0.00    -0.171 NA
ATOM      9  N4  <0> d          26.846  69.101 -25.166  0.00  0.00    -0.152 NA
BRANCH   9  10
ATOM     10  C5  <0> d          25.990  69.812 -25.961  0.00  0.00     0.112 A 
ATOM     11  C10 <0> d          25.821  69.460 -27.307  0.00  0.00     0.100 A 
ATOM     12  C9  <0> d          24.951  70.187 -28.104  0.00  0.00     0.063 A 
ATOM     13  C8  <0> d          24.253  71.255 -27.572  0.00  0.00     0.036 A 
ATOM     14  C7  <0> d          24.417  71.607 -26.241  0.00  0.00     0.026 A 
ATOM     15 Cl1  <0> d          23.165  72.161 -28.577  0.00  0.00    -0.084 Cl
ATOM     16  C6  <0> d          25.274  70.890 -25.434  0.00  0.00     0.038 A 
BRANCH  11  17
ATOM     17  O2  <0> d          26.508  68.411 -27.828  0.00  0.00    -0.353 OA
ATOM     18  C11 <0> d          27.342  68.680 -28.957  0.00  0.00     0.210 C 
ENDBRANCH  11  17
ENDBRANCH   9  10
ENDBRANCH   7   8
BRANCH   4  19
ATOM     19  C12 <0> d          29.902  70.381 -20.435  0.00  0.00     0.061 A 
ATOM     20  C17 <0> d          29.917  71.762 -20.292  0.00  0.00     0.032 A 
ATOM     21  C16 <0> d          30.353  72.327 -19.109  0.00  0.00     0.002 A 
ATOM     22  C15 <0> d          30.776  71.518 -18.070  0.00  0.00     0.000 A 
ATOM     23  C14 <0> d          30.761  70.144 -18.210  0.00  0.00     0.002 A 
ATOM     24  C13 <0> d          30.320  69.572 -19.387  0.00  0.00     0.032 A 
ENDBRANCH   4  19
TORSDOF 4
ENDMDL
MODEL 8
REMARK VINA RESULT:      -5.9     20.549     24.173
REMARK  4 active torsions:
REMARK  status: ('A' for Active; 'I' for Inactive)
REMARK    1  A    between atoms: N2_4  and  C12_19 
REMARK    2  A    between atoms: C4_7  and  N3_8 
REMARK    3  A    between atoms: N4_9  and  C5_10 
REMARK    4  A    between atoms: C10_15  and  O2_16 
ROOT
ATOM      1  C1  <0> d          31.205  54.872  -5.988  0.00  0.00     0.070 C 
ATOM      2  C2  <0> d          29.794  54.555  -5.561  0.00  0.00     0.065 A 
ATOM      3  N1  <0> d          29.447  53.749  -4.636  0.00  0.00    -0.171 NA
ATOM      4  N2  <0> d          28.067  53.667  -4.472  0.00  0.00    -0.199 N 
ATOM      5  C3  <0> d          27.425  54.471  -5.344  0.00  0.00     0.277 A 
ATOM      6  O1  <0> d          26.228  54.629  -5.459  0.00  0.00    -0.268 OA
ATOM      7  C4  <0> d          28.526  55.136  -6.149  0.00  0.00     0.273 A 
ENDROOT
BRANCH   7   8
ATOM      8  N3  <0> d          28.491  56.589  -5.968  0.00  0.00    -0.171 NA
ATOM      9  N4  <0> d          27.945  57.307  -6.819  0.00  0.00    -0.152 NA
BRANCH   9  10
ATOM     10  C5  <0> d          27.913  58.663  -6.650  0.00  0.00     0.112 A 
ATOM     11  C10 <0> d          27.699  59.506  -7.750  0.00  0.00     0.100 A 
ATOM     12  C9  <0> d          27.669  60.879  -7.568  0.00  0.00     0.063 A 
ATOM     13  C8  <0> d          27.847  61.415  -6.306  0.00  0.00     0.036 A 
ATOM     14  C7  <0> d          28.059  60.585  -5.216  0.00  0.00     0.026 A 
ATOM     15 Cl1  <0> d          27.808  63.137  -6.086  0.00  0.00    -0.084 Cl
ATOM     16  C6  <0> d          28.086  59.217  -5.379  0.00  0.00     0.038 A 
BRANCH  11  17
ATOM     17  O2  <0> d          27.525  58.977  -8.988  0.00  0.00    -0.353 OA
ATOM     18  C11 <0> d          27.005  59.848  -9.997  0.00  0.00     0.210 C 
ENDBRANCH  11  17
ENDBRANCH   9  10
ENDBRANCH   7   8
BRANCH   4  19
ATOM     19  C12 <0> d          27.430  52.855  -3.526  0.00  0.00     0.061 A 
ATOM     20  C17 <0> d          26.953  51.604  -3.892  0.00  0.00     0.032 A 
ATOM     21  C16 <0> d          26.325  50.804  -2.956  0.00  0.00     0.002 A 
ATOM     22  C15 <0> d          26.172  51.250  -1.657  0.00  0.00     0.000 A 
ATOM     23  C14 <0> d          26.647  52.495  -1.289  0.00  0.00     0.002 A 
ATOM     24  C13 <0> d          27.280  53.297  -2.218  0.00  0.00     0.032 A 
ENDBRANCH   4  19
TORSDOF 4
ENDMDL
MODEL 9
REMARK VINA RESULT:      -5.9     22.932     25.784
REMARK  4 active torsions:
REMARK  status: ('A' for Active; 'I' for Inactive)
REMARK    1  A    between atoms: N2_4  and  C12_19 
REMARK    2  A    between atoms: C4_7  and  N3_8 
REMARK    3  A    between atoms: N4_9  and  C5_10 
REMARK    4  A    between atoms: C10_15  and  O2_16 
ROOT
ATOM      1  C1  <0> d           6.395  51.674 -28.673  0.00  0.00     0.070 C 
ATOM      2  C2  <0> d           7.596  51.497 -27.781  0.00  0.00     0.065 A 
ATOM      3  N1  <0> d           8.537  50.650 -27.937  0.00  0.00    -0.171 NA
ATOM      4  N2  <0> d           9.513  50.728 -26.948  0.00  0.00    -0.199 N 
ATOM      5  C3  <0> d           9.221  51.694 -26.051  0.00  0.00     0.277 A 
ATOM      6  O1  <0> d           9.865  52.014 -25.075  0.00  0.00    -0.268 OA
ATOM      7  C4  <0> d           7.912  52.292 -26.532  0.00  0.00     0.273 A 
ENDROOT
BRANCH   7   8
ATOM      8  N3  <0> d           8.082  53.712 -26.853  0.00  0.00    -0.171 NA
ATOM      9  N4  <0> d           8.841  54.052 -27.772  0.00  0.00    -0.152 NA
BRANCH   9  10
ATOM     10  C5  <0> d           8.999  55.377 -28.072  0.00  0.00     0.112 A 
ATOM     11  C10 <0> d          10.270  55.967 -28.008  0.00  0.00     0.100 A 
ATOM     12  C9  <0> d          10.419  57.310 -28.313  0.00  0.00     0.063 A 
ATOM     13  C8  <0> d           9.320  58.065 -28.680  0.00  0.00     0.036 A 
ATOM     14  C7  <0> d           8.062  57.485 -28.744  0.00  0.00     0.026 A 
ATOM     15 Cl1  <0> d           9.516  59.747 -29.061  0.00  0.00    -0.084 Cl
ATOM     16  C6  <0> d           7.898  56.149 -28.449  0.00  0.00     0.038 A 
BRANCH  11  17
ATOM     17  O2  <0> d          11.347  55.225 -27.647  0.00  0.00    -0.353 OA
ATOM     18  C11 <0> d          12.069  54.576 -28.698  0.00  0.00     0.210 C 
ENDBRANCH  11  17
ENDBRANCH   9  10
ENDBRANCH   7   8
BRANCH   4  19
ATOM     19  C12 <0> d          10.649  49.911 -26.889  0.00  0.00     0.061 A 
ATOM     20  C17 <0> d          10.579  48.667 -26.277  0.00  0.00     0.032 A 
ATOM     21  C16 <0> d          11.701  47.862 -26.223  0.00  0.00     0.002 A 
ATOM     22  C15 <0> d          12.891  48.296 -26.776  0.00  0.00     0.000 A 
ATOM     23  C14 <0> d          12.963  49.533 -27.387  0.00  0.00     0.002 A 
ATOM     24  C13 <0> d          11.844  50.341 -27.450  0.00  0.00     0.032 A 
ENDBRANCH   4  19
TORSDOF 4
ENDMDL
MODEL 10
REMARK VINA RESULT:      -5.7      5.409      8.116
REMARK  4 active torsions:
REMARK  status: ('A' for Active; 'I' for Inactive)
REMARK    1  A    between atoms: N2_4  and  C12_19 
REMARK    2  A    between atoms: C4_7  and  N3_8 
REMARK    3  A    between atoms: N4_9  and  C5_10 
REMARK    4  A    between atoms: C10_15  and  O2_16 
ROOT
ATOM      1  C1  <0> d          26.406  71.857 -21.317  0.00  0.00     0.070 C 
ATOM      2  C2  <0> d          27.867  71.738 -20.966  0.00  0.00     0.065 A 
ATOM      3  N1  <0> d          28.790  71.279 -21.717  0.00  0.00    -0.171 NA
ATOM      4  N2  <0> d          30.045  71.298 -21.114  0.00  0.00    -0.199 N 
ATOM      5  C3  <0> d          29.977  71.805 -19.865  0.00  0.00     0.277 A 
ATOM      6  O1  <0> d          30.888  71.956 -19.080  0.00  0.00    -0.268 OA
ATOM      7  C4  <0> d          28.513  72.143 -19.658  0.00  0.00     0.273 A 
ENDROOT
BRANCH   7   8
ATOM      8  N3  <0> d          28.344  73.579 -19.423  0.00  0.00    -0.171 NA
ATOM      9  N4  <0> d          28.724  74.080 -18.353  0.00  0.00    -0.152 NA
BRANCH   9  10
ATOM     10  C5  <0> d          28.566  75.420 -18.134  0.00  0.00     0.112 A 
ATOM     11  C10 <0> d          29.689  76.250 -17.999  0.00  0.00     0.100 A 
ATOM     12  C9  <0> d          29.518  77.607 -17.776  0.00  0.00     0.063 A 
ATOM     13  C8  <0> d          28.246  78.140 -17.688  0.00  0.00     0.036 A 
ATOM     14  C7  <0> d          27.133  77.323 -17.821  0.00  0.00     0.026 A 
ATOM     15 Cl1  <0> d          28.040  79.841 -17.409  0.00  0.00    -0.084 Cl
ATOM     16  C6  <0> d          27.286  75.973 -18.049  0.00  0.00     0.038 A 
BRANCH  11  17
ATOM     17  O2  <0> d          30.937  75.724 -18.085  0.00  0.00    -0.353 OA
ATOM     18  C11 <0> d          31.642  75.925 -19.313  0.00  0.00     0.210 C 
ENDBRANCH  11  17
ENDBRANCH   9  10
ENDBRANCH   7   8
BRANCH   4  19
ATOM     19  C12 <0> d          31.223  70.849 -21.724  0.00  0.00     0.061 A 
ATOM     20  C17 <0> d          31.339  69.524 -22.121  0.00  0.00     0.032 A 
ATOM     21  C16 <0> d          32.502  69.085 -22.723  0.00  0.00     0.002 A 
ATOM     22  C15 <0> d          33.549  69.964 -22.930  0.00  0.00     0.000 A 
ATOM     23  C14 <0> d          33.436  71.284 -22.536  0.00  0.00     0.002 A 
ATOM     24  C13 <0> d          32.274  71.731 -21.939  0.00  0.00     0.032 A 
ENDBRANCH   4  19
TORSDOF 4
ENDMDL
