MODEL 1
REMARK VINA RESULT:      -7.4      0.000      0.000
REMARK  3 active torsions:
REMARK  status: ('A' for Active; 'I' for Inactive)
REMARK    1  A    between atoms: N2_12  and  C10_13 
REMARK    2  A    between atoms: C13_16  and  N4_22 
REMARK    3  A    between atoms: C15_18  and  N3_19 
ROOT
ATOM      1  C1  <0> d          27.229  68.139 -28.836  0.00  0.00     0.092 C 
ATOM      2  C2  <0> d          27.568  68.589 -27.438  0.00  0.00     0.110 A 
ATOM      3  N1  <0> d          28.734  68.286 -26.959  0.00  0.00    -0.234 NA
ATOM      4  C3  <0> d          29.107  68.652 -25.707  0.00  0.00     0.074 A 
ATOM      5  C4  <0> d          30.361  68.321 -25.188  0.00  0.00     0.034 A 
ATOM      6  C5  <0> d          30.697  68.713 -23.913  0.00  0.00     0.020 A 
ATOM      7  C6  <0> d          29.804  69.435 -23.131  0.00  0.00     0.007 A 
ATOM      8  C7  <0> d          28.560  69.774 -23.620  0.00  0.00     0.037 A 
ATOM      9  C8  <0> d          28.201  69.386 -24.909  0.00  0.00     0.063 A 
ATOM     10  C9  <0> d          26.888  69.719 -25.483  0.00  0.00     0.266 A 
ATOM     11  O1  <0> d          26.062  70.350 -24.849  0.00  0.00    -0.267 OA
ATOM     12  N2  <0> d          26.635  69.297 -26.744  0.00  0.00    -0.263 N 
ATOM     13  I1  <0> d          30.350  70.014 -21.193  0.00  0.00    -0.045 I 
ENDROOT
BRANCH  12  14
ATOM     14  C10 <0> d          25.400  69.586 -27.338  0.00  0.00     0.077 A 
ATOM     15  C15 <0> d          25.248  70.735 -28.102  0.00  0.00     0.132 A 
ATOM     16  C14 <0> d          24.028  71.018 -28.686  0.00  0.00     0.074 A 
ATOM     17  C13 <0> d          22.958  70.162 -28.505  0.00  0.00     0.105 A 
ATOM     18  C12 <0> d          23.109  69.013 -27.749  0.00  0.00     0.038 A 
ATOM     19  C11 <0> d          24.325  68.725 -27.162  0.00  0.00     0.035 A 
BRANCH  15  20
ATOM     20  N3  <0> d          26.391  71.656 -28.292  0.00  0.00    -0.113 N 
ATOM     21  O2  <0> d          27.141  71.510 -29.239  0.00  0.00    -0.532 OA
ATOM     22  O3  <0> d          26.581  72.562 -27.499  0.00  0.00    -0.532 OA
ENDBRANCH  15  20
BRANCH  17  23
ATOM     23  N4  <0> d          21.651  70.471 -29.127  0.00  0.00    -0.116 N 
ATOM     24  O4  <0> d          20.713  70.820 -28.433  0.00  0.00    -0.532 OA
ATOM     25  O5  <0> d          21.514  70.377 -30.334  0.00  0.00    -0.532 OA
ENDBRANCH  17  23
ENDBRANCH  12  14
TORSDOF 3
ENDMDL
MODEL 2
REMARK VINA RESULT:      -7.3      3.572      7.110
REMARK  3 active torsions:
REMARK  status: ('A' for Active; 'I' for Inactive)
REMARK    1  A    between atoms: N2_12  and  C10_13 
REMARK    2  A    between atoms: C13_16  and  N4_22 
REMARK    3  A    between atoms: C15_18  and  N3_19 
ROOT
ATOM      1  C1  <0> d          27.189  72.266 -26.827  0.00  0.00     0.092 C 
ATOM      2  C2  <0> d          25.928  71.528 -27.197  0.00  0.00     0.110 A 
ATOM      3  N1  <0> d          24.943  72.205 -27.702  0.00  0.00    -0.234 NA
ATOM      4  C3  <0> d          23.776  71.610 -28.054  0.00  0.00     0.074 A 
ATOM      5  C4  <0> d          22.714  72.340 -28.592  0.00  0.00     0.034 A 
ATOM      6  C5  <0> d          21.547  71.694 -28.935  0.00  0.00     0.020 A 
ATOM      7  C6  <0> d          21.411  70.324 -28.752  0.00  0.00     0.007 A 
ATOM      8  C7  <0> d          22.446  69.582 -28.223  0.00  0.00     0.037 A 
ATOM      9  C8  <0> d          23.634  70.217 -27.869  0.00  0.00     0.063 A 
ATOM     10  C9  <0> d          24.771  69.476 -27.300  0.00  0.00     0.266 A 
ATOM     11  O1  <0> d          24.714  68.274 -27.116  0.00  0.00    -0.267 OA
ATOM     12  N2  <0> d          25.882  70.184 -26.989  0.00  0.00    -0.263 N 
ATOM     13  I1  <0> d          19.621  69.377 -29.285  0.00  0.00    -0.045 I 
ENDROOT
BRANCH  12  14
ATOM     14  C10 <0> d          26.992  69.527 -26.444  0.00  0.00     0.077 A 
ATOM     15  C15 <0> d          27.900  68.888 -27.277  0.00  0.00     0.132 A 
ATOM     16  C14 <0> d          28.995  68.241 -26.735  0.00  0.00     0.074 A 
ATOM     17  C13 <0> d          29.183  68.225 -25.365  0.00  0.00     0.105 A 
ATOM     18  C12 <0> d          28.282  68.867 -24.534  0.00  0.00     0.038 A 
ATOM     19  C11 <0> d          27.186  69.515 -25.068  0.00  0.00     0.035 A 
BRANCH  15  20
ATOM     20  N3  <0> d          27.697  68.899 -28.742  0.00  0.00    -0.113 N 
ATOM     21  O2  <0> d          28.068  69.852 -29.402  0.00  0.00    -0.532 OA
ATOM     22  O3  <0> d          27.159  67.952 -29.289  0.00  0.00    -0.532 OA
ENDBRANCH  15  20
BRANCH  17  23
ATOM     23  N4  <0> d          30.353  67.526 -24.789  0.00  0.00    -0.116 N 
ATOM     24  O4  <0> d          30.941  66.682 -25.441  0.00  0.00    -0.532 OA
ATOM     25  O5  <0> d          30.727  67.794 -23.661  0.00  0.00    -0.532 OA
ENDBRANCH  17  23
ENDBRANCH  12  14
TORSDOF 3
ENDMDL
MODEL 3
REMARK VINA RESULT:      -7.0      5.667      8.188
REMARK  3 active torsions:
REMARK  status: ('A' for Active; 'I' for Inactive)
REMARK    1  A    between atoms: N2_12  and  C10_13 
REMARK    2  A    between atoms: C13_16  and  N4_22 
REMARK    3  A    between atoms: C15_18  and  N3_19 
ROOT
ATOM      1  C1  <0> d          31.998  72.420 -21.932  0.00  0.00     0.092 C 
ATOM      2  C2  <0> d          31.058  72.116 -20.794  0.00  0.00     0.110 A 
ATOM      3  N1  <0> d          30.947  72.983 -19.836  0.00  0.00    -0.234 NA
ATOM      4  C3  <0> d          30.125  72.774 -18.777  0.00  0.00     0.074 A 
ATOM      5  C4  <0> d          30.011  73.706 -17.743  0.00  0.00     0.034 A 
ATOM      6  C5  <0> d          29.164  73.452 -16.688  0.00  0.00     0.020 A 
ATOM      7  C6  <0> d          28.420  72.281 -16.637  0.00  0.00     0.007 A 
ATOM      8  C7  <0> d          28.515  71.346 -17.646  0.00  0.00     0.037 A 
ATOM      9  C8  <0> d          29.367  71.584 -18.723  0.00  0.00     0.063 A 
ATOM     10  C9  <0> d          29.510  70.623 -19.827  0.00  0.00     0.266 A 
ATOM     11  O1  <0> d          28.885  69.578 -19.841  0.00  0.00    -0.267 OA
ATOM     12  N2  <0> d          30.363  70.946 -20.827  0.00  0.00    -0.263 N 
ATOM     13  I1  <0> d          27.142  71.930 -15.015  0.00  0.00    -0.045 I 
ENDROOT
BRANCH  12  14
ATOM     14  C10 <0> d          30.537  70.065 -21.902  0.00  0.00     0.077 A 
ATOM     15  C15 <0> d          29.616  70.046 -22.941  0.00  0.00     0.132 A 
ATOM     16  C14 <0> d          29.790  69.176 -24.000  0.00  0.00     0.074 A 
ATOM     17  C13 <0> d          30.876  68.321 -24.023  0.00  0.00     0.105 A 
ATOM     18  C12 <0> d          31.798  68.343 -22.992  0.00  0.00     0.038 A 
ATOM     19  C11 <0> d          31.630  69.209 -21.931  0.00  0.00     0.035 A 
BRANCH  15  20
ATOM     20  N3  <0> d          28.449  70.957 -22.915  0.00  0.00    -0.113 N 
ATOM     21  O2  <0> d          28.599  72.146 -23.127  0.00  0.00    -0.532 OA
ATOM     22  O3  <0> d          27.338  70.515 -22.681  0.00  0.00    -0.532 OA
ENDBRANCH  15  20
BRANCH  17  23
ATOM     23  N4  <0> d          31.056  67.386 -25.157  0.00  0.00    -0.116 N 
ATOM     24  O4  <0> d          32.017  66.638 -25.183  0.00  0.00    -0.532 OA
ATOM     25  O5  <0> d          30.243  67.366 -26.063  0.00  0.00    -0.532 OA
ENDBRANCH  17  23
ENDBRANCH  12  14
TORSDOF 3
ENDMDL
MODEL 4
REMARK VINA RESULT:      -6.8     22.740     24.998
REMARK  3 active torsions:
REMARK  status: ('A' for Active; 'I' for Inactive)
REMARK    1  A    between atoms: N2_12  and  C10_13 
REMARK    2  A    between atoms: C13_16  and  N4_22 
REMARK    3  A    between atoms: C15_18  and  N3_19 
ROOT
ATOM      1  C1  <0> d          32.092  55.127  -5.964  0.00  0.00     0.092 C 
ATOM      2  C2  <0> d          32.791  56.264  -5.264  0.00  0.00     0.110 A 
ATOM      3  N1  <0> d          33.973  56.053  -4.772  0.00  0.00    -0.234 NA
ATOM      4  C3  <0> d          34.659  57.027  -4.125  0.00  0.00     0.074 A 
ATOM      5  C4  <0> d          35.929  56.798  -3.590  0.00  0.00     0.034 A 
ATOM      6  C5  <0> d          36.590  57.816  -2.941  0.00  0.00     0.020 A 
ATOM      7  C6  <0> d          36.010  59.071  -2.809  0.00  0.00     0.007 A 
ATOM      8  C7  <0> d          34.758  59.323  -3.329  0.00  0.00     0.037 A 
ATOM      9  C8  <0> d          34.073  58.305  -3.990  0.00  0.00     0.063 A 
ATOM     10  C9  <0> d          32.735  58.515  -4.564  0.00  0.00     0.266 A 
ATOM     11  O1  <0> d          32.174  59.592  -4.482  0.00  0.00    -0.267 OA
ATOM     12  N2  <0> d          32.152  57.464  -5.186  0.00  0.00    -0.263 N 
ATOM     13  I1  <0> d          37.046  60.596  -1.814  0.00  0.00    -0.045 I 
ENDROOT
BRANCH  12  14
ATOM     14  C10 <0> d          30.878  57.610  -5.749  0.00  0.00     0.077 A 
ATOM     15  C15 <0> d          30.738  58.148  -7.021  0.00  0.00     0.132 A 
ATOM     16  C14 <0> d          29.479  58.290  -7.574  0.00  0.00     0.074 A 
ATOM     17  C13 <0> d          28.361  57.905  -6.859  0.00  0.00     0.105 A 
ATOM     18  C12 <0> d          28.499  57.363  -5.594  0.00  0.00     0.038 A 
ATOM     19  C11 <0> d          29.753  57.218  -5.035  0.00  0.00     0.035 A 
BRANCH  15  20
ATOM     20  N3  <0> d          31.934  58.567  -7.785  0.00  0.00    -0.113 N 
ATOM     21  O2  <0> d          32.640  57.732  -8.319  0.00  0.00    -0.532 OA
ATOM     22  O3  <0> d          32.212  59.750  -7.880  0.00  0.00    -0.532 OA
ENDBRANCH  15  20
BRANCH  17  23
ATOM     23  N4  <0> d          27.014  58.065  -7.452  0.00  0.00    -0.116 N 
ATOM     24  O4  <0> d          26.028  57.716  -6.828  0.00  0.00    -0.532 OA
ATOM     25  O5  <0> d          26.893  58.546  -8.565  0.00  0.00    -0.532 OA
ENDBRANCH  17  23
ENDBRANCH  12  14
TORSDOF 3
ENDMDL
MODEL 5
REMARK VINA RESULT:      -6.5      3.651      6.851
REMARK  3 active torsions:
REMARK  status: ('A' for Active; 'I' for Inactive)
REMARK    1  A    between atoms: N2_12  and  C10_13 
REMARK    2  A    between atoms: C13_16  and  N4_22 
REMARK    3  A    between atoms: C15_18  and  N3_19 
ROOT
ATOM      1  C1  <0> d          23.664  69.267 -26.664  0.00  0.00     0.092 C 
ATOM      2  C2  <0> d          23.872  70.740 -26.908  0.00  0.00     0.110 A 
ATOM      3  N1  <0> d          22.835  71.520 -26.890  0.00  0.00    -0.234 NA
ATOM      4  C3  <0> d          22.945  72.854 -27.107  0.00  0.00     0.074 A 
ATOM      5  C4  <0> d          21.828  73.693 -27.094  0.00  0.00     0.034 A 
ATOM      6  C5  <0> d          21.986  75.042 -27.319  0.00  0.00     0.020 A 
ATOM      7  C6  <0> d          23.242  75.582 -27.560  0.00  0.00     0.007 A 
ATOM      8  C7  <0> d          24.360  74.774 -27.578  0.00  0.00     0.037 A 
ATOM      9  C8  <0> d          24.221  73.406 -27.353  0.00  0.00     0.063 A 
ATOM     10  C9  <0> d          25.377  72.497 -27.361  0.00  0.00     0.266 A 
ATOM     11  O1  <0> d          26.504  72.909 -27.567  0.00  0.00    -0.267 OA
ATOM     12  N2  <0> d          25.139  71.185 -27.131  0.00  0.00    -0.263 N 
ATOM     13  I1  <0> d          23.443  77.639 -27.900  0.00  0.00    -0.045 I 
ENDROOT
BRANCH  12  14
ATOM     14  C10 <0> d          26.204  70.276 -27.129  0.00  0.00     0.077 A 
ATOM     15  C15 <0> d          26.972  70.108 -25.985  0.00  0.00     0.132 A 
ATOM     16  C14 <0> d          28.023  69.210 -25.986  0.00  0.00     0.074 A 
ATOM     17  C13 <0> d          28.314  68.485 -27.126  0.00  0.00     0.105 A 
ATOM     18  C12 <0> d          27.546  68.646 -28.266  0.00  0.00     0.038 A 
ATOM     19  C11 <0> d          26.495  69.542 -28.272  0.00  0.00     0.035 A 
BRANCH  15  20
ATOM     20  N3  <0> d          26.666  70.888 -24.765  0.00  0.00    -0.113 N 
ATOM     21  O2  <0> d          25.776  70.526 -24.017  0.00  0.00    -0.532 OA
ATOM     22  O3  <0> d          27.306  71.893 -24.509  0.00  0.00    -0.532 OA
ENDBRANCH  15  20
BRANCH  17  23
ATOM     23  N4  <0> d          29.444  67.529 -27.125  0.00  0.00    -0.116 N 
ATOM     24  O4  <0> d          29.743  66.939 -28.148  0.00  0.00    -0.532 OA
ATOM     25  O5  <0> d          30.074  67.332 -26.101  0.00  0.00    -0.532 OA
ENDBRANCH  17  23
ENDBRANCH  12  14
TORSDOF 3
ENDMDL
MODEL 6
REMARK VINA RESULT:      -6.5     15.911     17.603
REMARK  3 active torsions:
REMARK  status: ('A' for Active; 'I' for Inactive)
REMARK    1  A    between atoms: N2_12  and  C10_13 
REMARK    2  A    between atoms: C13_16  and  N4_22 
REMARK    3  A    between atoms: C15_18  and  N3_19 
ROOT
ATOM      1  C1  <0> d          24.919  51.724 -29.810  0.00  0.00     0.092 C 
ATOM      2  C2  <0> d          24.961  52.346 -31.183  0.00  0.00     0.110 A 
ATOM      3  N1  <0> d          25.368  51.618 -32.177  0.00  0.00    -0.234 NA
ATOM      4  C3  <0> d          25.437  52.112 -33.439  0.00  0.00     0.074 A 
ATOM      5  C4  <0> d          25.881  51.330 -34.508  0.00  0.00     0.034 A 
ATOM      6  C5  <0> d          25.935  51.872 -35.772  0.00  0.00     0.020 A 
ATOM      7  C6  <0> d          25.555  53.187 -36.000  0.00  0.00     0.007 A 
ATOM      8  C7  <0> d          25.113  53.979 -34.961  0.00  0.00     0.037 A 
ATOM      9  C8  <0> d          25.051  53.450 -33.674  0.00  0.00     0.063 A 
ATOM     10  C9  <0> d          24.589  54.247 -32.528  0.00  0.00     0.266 A 
ATOM     11  O1  <0> d          24.241  55.406 -32.662  0.00  0.00    -0.267 OA
ATOM     12  N2  <0> d          24.565  53.641 -31.318  0.00  0.00    -0.263 N 
ATOM     13  I1  <0> d          25.652  53.978 -37.938  0.00  0.00    -0.045 I 
ENDROOT
BRANCH  12  14
ATOM     14  C10 <0> d          24.134  54.355 -30.193  0.00  0.00     0.077 A 
ATOM     15  C15 <0> d          22.788  54.371 -29.852  0.00  0.00     0.132 A 
ATOM     16  C14 <0> d          22.366  55.077 -28.742  0.00  0.00     0.074 A 
ATOM     17  C13 <0> d          23.281  55.772 -27.974  0.00  0.00     0.105 A 
ATOM     18  C12 <0> d          24.624  55.753 -28.308  0.00  0.00     0.038 A 
ATOM     19  C11 <0> d          25.052  55.050 -29.416  0.00  0.00     0.035 A 
BRANCH  15  20
ATOM     20  N3  <0> d          21.806  53.632 -30.677  0.00  0.00    -0.113 N 
ATOM     21  O2  <0> d          21.229  54.195 -31.589  0.00  0.00    -0.532 OA
ATOM     22  O3  <0> d          21.575  52.458 -30.443  0.00  0.00    -0.532 OA
ENDBRANCH  15  20
BRANCH  17  23
ATOM     23  N4  <0> d          22.825  56.532 -26.789  0.00  0.00    -0.116 N 
ATOM     24  O4  <0> d          21.984  56.056 -26.046  0.00  0.00    -0.532 OA
ATOM     25  O5  <0> d          23.289  57.634 -26.556  0.00  0.00    -0.532 OA
ENDBRANCH  17  23
ENDBRANCH  12  14
TORSDOF 3
ENDMDL
MODEL 7
REMARK VINA RESULT:      -6.4     24.000     26.432
REMARK  3 active torsions:
REMARK  status: ('A' for Active; 'I' for Inactive)
REMARK    1  A    between atoms: N2_12  and  C10_13 
REMARK    2  A    between atoms: C13_16  and  N4_22 
REMARK    3  A    between atoms: C15_18  and  N3_19 
ROOT
ATOM      1  C1  <0> d          27.510  57.774  -3.061  0.00  0.00     0.092 C 
ATOM      2  C2  <0> d          27.396  56.275  -3.180  0.00  0.00     0.110 A 
ATOM      3  N1  <0> d          27.350  55.571  -2.092  0.00  0.00    -0.234 NA
ATOM      4  C3  <0> d          27.253  54.219  -2.122  0.00  0.00     0.074 A 
ATOM      5  C4  <0> d          27.210  53.460  -0.950  0.00  0.00     0.034 A 
ATOM      6  C5  <0> d          27.111  52.090  -1.027  0.00  0.00     0.020 A 
ATOM      7  C6  <0> d          27.055  51.448  -2.257  0.00  0.00     0.007 A 
ATOM      8  C7  <0> d          27.096  52.175  -3.429  0.00  0.00     0.037 A 
ATOM      9  C8  <0> d          27.196  53.563  -3.371  0.00  0.00     0.063 A 
ATOM     10  C9  <0> d          27.244  54.389  -4.588  0.00  0.00     0.266 A 
ATOM     11  O1  <0> d          27.199  53.887  -5.695  0.00  0.00    -0.267 OA
ATOM     12  N2  <0> d          27.341  55.730  -4.426  0.00  0.00    -0.263 N 
ATOM     13  I1  <0> d          26.906  49.360  -2.336  0.00  0.00    -0.045 I 
ENDROOT
BRANCH  12  14
ATOM     14  C10 <0> d          27.392  56.562  -5.551  0.00  0.00     0.077 A 
ATOM     15  C15 <0> d          28.610  56.841  -6.156  0.00  0.00     0.132 A 
ATOM     16  C14 <0> d          28.655  57.663  -7.266  0.00  0.00     0.074 A 
ATOM     17  C13 <0> d          27.491  58.212  -7.770  0.00  0.00     0.105 A 
ATOM     18  C12 <0> d          26.276  57.930  -7.173  0.00  0.00     0.038 A 
ATOM     19  C11 <0> d          26.223  57.110  -6.064  0.00  0.00     0.035 A 
BRANCH  15  20
ATOM     20  N3  <0> d          29.857  56.259  -5.613  0.00  0.00    -0.113 N 
ATOM     21  O2  <0> d          30.284  55.210  -6.058  0.00  0.00    -0.532 OA
ATOM     22  O3  <0> d          30.458  56.832  -4.721  0.00  0.00    -0.532 OA
ENDBRANCH  15  20
BRANCH  17  23
ATOM     23  N4  <0> d          27.546  59.097  -8.956  0.00  0.00    -0.116 N 
ATOM     24  O4  <0> d          27.907  60.254  -8.836  0.00  0.00    -0.532 OA
ATOM     25  O5  <0> d          27.227  58.668 -10.050  0.00  0.00    -0.532 OA
ENDBRANCH  17  23
ENDBRANCH  12  14
TORSDOF 3
ENDMDL
MODEL 8
REMARK VINA RESULT:      -6.1     21.491     23.945
REMARK  3 active torsions:
REMARK  status: ('A' for Active; 'I' for Inactive)
REMARK    1  A    between atoms: N2_12  and  C10_13 
REMARK    2  A    between atoms: C13_16  and  N4_22 
REMARK    3  A    between atoms: C15_18  and  N3_19 
ROOT
ATOM      1  C1  <0> d          10.365  51.931 -25.407  0.00  0.00     0.092 C 
ATOM      2  C2  <0> d          11.108  51.147 -26.459  0.00  0.00     0.110 A 
ATOM      3  N1  <0> d          11.434  49.919 -26.197  0.00  0.00    -0.234 NA
ATOM      4  C3  <0> d          12.107  49.155 -27.093  0.00  0.00     0.074 A 
ATOM      5  C4  <0> d          12.463  47.834 -26.808  0.00  0.00     0.034 A 
ATOM      6  C5  <0> d          13.146  47.095 -27.747  0.00  0.00     0.020 A 
ATOM      7  C6  <0> d          13.488  47.645 -28.975  0.00  0.00     0.007 A 
ATOM      8  C7  <0> d          13.148  48.946 -29.279  0.00  0.00     0.037 A 
ATOM      9  C8  <0> d          12.457  49.711 -28.343  0.00  0.00     0.063 A 
ATOM     10  C9  <0> d          12.069  51.104 -28.612  0.00  0.00     0.266 A 
ATOM     11  O1  <0> d          12.339  51.643 -29.669  0.00  0.00    -0.267 OA
ATOM     12  N2  <0> d          11.399  51.763 -27.637  0.00  0.00    -0.263 N 
ATOM     13  I1  <0> d          14.530  46.490 -30.379  0.00  0.00    -0.045 I 
ENDROOT
BRANCH  12  14
ATOM     14  C10 <0> d          11.006  53.092 -27.842  0.00  0.00     0.077 A 
ATOM     15  C15 <0> d           9.733  53.376 -28.315  0.00  0.00     0.132 A 
ATOM     16  C14 <0> d           9.349  54.688 -28.516  0.00  0.00     0.074 A 
ATOM     17  C13 <0> d          10.234  55.717 -28.252  0.00  0.00     0.105 A 
ATOM     18  C12 <0> d          11.501  55.437 -27.774  0.00  0.00     0.038 A 
ATOM     19  C11 <0> d          11.891  54.128 -27.571  0.00  0.00     0.035 A 
BRANCH  15  20
ATOM     20  N3  <0> d           8.787  52.275 -28.605  0.00  0.00    -0.113 N 
ATOM     21  O2  <0> d           8.846  51.685 -29.667  0.00  0.00    -0.532 OA
ATOM     22  O3  <0> d           7.949  51.959 -27.778  0.00  0.00    -0.532 OA
ENDBRANCH  15  20
BRANCH  17  23
ATOM     23  N4  <0> d           9.821  57.121 -28.474  0.00  0.00    -0.116 N 
ATOM     24  O4  <0> d           8.713  57.367 -28.917  0.00  0.00    -0.532 OA
ATOM     25  O5  <0> d          10.589  58.030 -28.214  0.00  0.00    -0.532 OA
ENDBRANCH  17  23
ENDBRANCH  12  14
TORSDOF 3
ENDMDL
MODEL 9
REMARK VINA RESULT:      -6.0     24.369     26.956
REMARK  3 active torsions:
REMARK  status: ('A' for Active; 'I' for Inactive)
REMARK    1  A    between atoms: N2_12  and  C10_13 
REMARK    2  A    between atoms: C13_16  and  N4_22 
REMARK    3  A    between atoms: C15_18  and  N3_19 
ROOT
ATOM      1  C1  <0> d          28.115  56.901  -2.204  0.00  0.00     0.092 C 
ATOM      2  C2  <0> d          27.780  55.525  -2.719  0.00  0.00     0.110 A 
ATOM      3  N1  <0> d          27.424  54.616  -1.864  0.00  0.00    -0.234 NA
ATOM      4  C3  <0> d          27.114  53.354  -2.254  0.00  0.00     0.074 A 
ATOM      5  C4  <0> d          26.737  52.374  -1.333  0.00  0.00     0.034 A 
ATOM      6  C5  <0> d          26.430  51.107  -1.773  0.00  0.00     0.020 A 
ATOM      7  C6  <0> d          26.491  50.787  -3.122  0.00  0.00     0.007 A 
ATOM      8  C7  <0> d          26.860  51.738  -4.051  0.00  0.00     0.037 A 
ATOM      9  C8  <0> d          27.175  53.026  -3.626  0.00  0.00     0.063 A 
ATOM     10  C9  <0> d          27.575  54.080  -4.571  0.00  0.00     0.266 A 
ATOM     11  O1  <0> d          27.647  53.863  -5.767  0.00  0.00    -0.267 OA
ATOM     12  N2  <0> d          27.861  55.300  -4.059  0.00  0.00    -0.263 N 
ATOM     13  I1  <0> d          26.018  48.847  -3.755  0.00  0.00    -0.045 I 
ENDROOT
BRANCH  12  14
ATOM     14  C10 <0> d          28.248  56.339  -4.915  0.00  0.00     0.077 A 
ATOM     15  C15 <0> d          27.292  57.194  -5.446  0.00  0.00     0.132 A 
ATOM     16  C14 <0> d          27.678  58.218  -6.291  0.00  0.00     0.074 A 
ATOM     17  C13 <0> d          29.012  58.386  -6.612  0.00  0.00     0.105 A 
ATOM     18  C12 <0> d          29.966  57.539  -6.079  0.00  0.00     0.038 A 
ATOM     19  C11 <0> d          29.588  56.513  -5.234  0.00  0.00     0.035 A 
BRANCH  15  20
ATOM     20  N3  <0> d          25.863  57.012  -5.109  0.00  0.00    -0.113 N 
ATOM     21  O2  <0> d          25.372  57.631  -4.183  0.00  0.00    -0.532 OA
ATOM     22  O3  <0> d          25.178  56.241  -5.759  0.00  0.00    -0.532 OA
ENDBRANCH  15  20
BRANCH  17  23
ATOM     23  N4  <0> d          29.420  59.480  -7.521  0.00  0.00    -0.116 N 
ATOM     24  O4  <0> d          30.598  59.771  -7.635  0.00  0.00    -0.532 OA
ATOM     25  O5  <0> d          28.578  60.090  -8.156  0.00  0.00    -0.532 OA
ENDBRANCH  17  23
ENDBRANCH  12  14
TORSDOF 3
ENDMDL
MODEL 10
REMARK VINA RESULT:      -6.0      5.288      7.133
REMARK  3 active torsions:
REMARK  status: ('A' for Active; 'I' for Inactive)
REMARK    1  A    between atoms: N2_12  and  C10_13 
REMARK    2  A    between atoms: C13_16  and  N4_22 
REMARK    3  A    between atoms: C15_18  and  N3_19 
ROOT
ATOM      1  C1  <0> d          22.763  71.896 -24.521  0.00  0.00     0.092 C 
ATOM      2  C2  <0> d          22.741  71.126 -23.225  0.00  0.00     0.110 A 
ATOM      3  N1  <0> d          21.686  71.211 -22.475  0.00  0.00    -0.234 NA
ATOM      4  C3  <0> d          21.597  70.551 -21.294  0.00  0.00     0.074 A 
ATOM      5  C4  <0> d          20.463  70.647 -20.483  0.00  0.00     0.034 A 
ATOM      6  C5  <0> d          20.416  69.959 -19.292  0.00  0.00     0.020 A 
ATOM      7  C6  <0> d          21.483  69.170 -18.883  0.00  0.00     0.007 A 
ATOM      8  C7  <0> d          22.613  69.059 -19.665  0.00  0.00     0.037 A 
ATOM      9  C8  <0> d          22.680  69.748 -20.874  0.00  0.00     0.063 A 
ATOM     10  C9  <0> d          23.860  69.667 -21.749  0.00  0.00     0.266 A 
ATOM     11  O1  <0> d          24.827  68.992 -21.447  0.00  0.00    -0.267 OA
ATOM     12  N2  <0> d          23.828  70.373 -22.904  0.00  0.00    -0.263 N 
ATOM     13  I1  <0> d          21.376  68.139 -17.062  0.00  0.00    -0.045 I 
ENDROOT
BRANCH  12  14
ATOM     14  C10 <0> d          24.926  70.332 -23.773  0.00  0.00     0.077 A 
ATOM     15  C15 <0> d          25.964  71.242 -23.625  0.00  0.00     0.132 A 
ATOM     16  C14 <0> d          27.045  71.198 -24.484  0.00  0.00     0.074 A 
ATOM     17  C13 <0> d          27.091  70.255 -25.494  0.00  0.00     0.105 A 
ATOM     18  C12 <0> d          26.060  69.344 -25.639  0.00  0.00     0.038 A 
ATOM     19  C11 <0> d          24.977  69.382 -24.784  0.00  0.00     0.035 A 
BRANCH  15  20
ATOM     20  N3  <0> d          25.914  72.256 -22.548  0.00  0.00    -0.113 N 
ATOM     21  O2  <0> d          26.362  71.998 -21.447  0.00  0.00    -0.532 OA
ATOM     22  O3  <0> d          25.424  73.350 -22.766  0.00  0.00    -0.532 OA
ENDBRANCH  15  20
BRANCH  17  23
ATOM     23  N4  <0> d          28.248  70.216 -26.416  0.00  0.00    -0.116 N 
ATOM     24  O4  <0> d          29.005  69.262 -26.404  0.00  0.00    -0.532 OA
ATOM     25  O5  <0> d          28.443  71.139 -27.186  0.00  0.00    -0.532 OA
ENDBRANCH  17  23
ENDBRANCH  12  14
TORSDOF 3
ENDMDL
