MODEL 1
REMARK VINA RESULT:      -7.5      0.000      0.000
REMARK  3 active torsions:
REMARK  status: ('A' for Active; 'I' for Inactive)
REMARK    1  A    between atoms: N2_12  and  C10_13 
REMARK    2  A    between atoms: C13_16  and  N4_22 
REMARK    3  A    between atoms: C15_18  and  N3_19 
ROOT
ATOM      1  C1  <0> d          27.262  68.116 -28.823  0.00  0.00     0.092 C 
ATOM      2  C2  <0> d          27.596  68.567 -27.424  0.00  0.00     0.110 A 
ATOM      3  N1  <0> d          28.766  68.277 -26.945  0.00  0.00    -0.234 NA
ATOM      4  C3  <0> d          29.134  68.645 -25.693  0.00  0.00     0.074 A 
ATOM      5  C4  <0> d          30.392  68.327 -25.175  0.00  0.00     0.034 A 
ATOM      6  C5  <0> d          30.724  68.722 -23.899  0.00  0.00     0.020 A 
ATOM      7  C6  <0> d          29.823  69.432 -23.116  0.00  0.00     0.007 A 
ATOM      8  C7  <0> d          28.576  69.758 -23.605  0.00  0.00     0.037 A 
ATOM      9  C8  <0> d          28.221  69.368 -24.894  0.00  0.00     0.063 A 
ATOM     10  C9  <0> d          26.904  69.687 -25.468  0.00  0.00     0.266 A 
ATOM     11  O1  <0> d          26.072  70.308 -24.832  0.00  0.00    -0.267 OA
ATOM     12  N2  <0> d          26.655  69.264 -26.729  0.00  0.00    -0.263 N 
ATOM     13  I1  <0> d          30.363  70.014 -21.178  0.00  0.00    -0.045 I 
ENDROOT
BRANCH  12  14
ATOM     14  C10 <0> d          25.417  69.541 -27.322  0.00  0.00     0.077 A 
ATOM     15  C15 <0> d          25.259  70.678 -28.103  0.00  0.00     0.132 A 
ATOM     16  C14 <0> d          24.036  70.948 -28.687  0.00  0.00     0.074 A 
ATOM     17  C13 <0> d          22.969  70.091 -28.488  0.00  0.00     0.105 A 
ATOM     18  C12 <0> d          23.126  68.955 -27.716  0.00  0.00     0.038 A 
ATOM     19  C11 <0> d          24.345  68.679 -27.129  0.00  0.00     0.035 A 
BRANCH  15  20
ATOM     20  N3  <0> d          26.398  71.599 -28.311  0.00  0.00    -0.113 N 
ATOM     21  O2  <0> d          27.141  71.444 -29.263  0.00  0.00    -0.532 OA
ATOM     22  O3  <0> d          26.592  72.514 -27.529  0.00  0.00    -0.532 OA
ENDBRANCH  15  20
BRANCH  17  23
ATOM     23  N4  <0> d          21.659  70.387 -29.110  0.00  0.00    -0.116 N 
ATOM     24  O4  <0> d          21.548  70.394 -30.323  0.00  0.00    -0.532 OA
ATOM     25  O5  <0> d          20.692  70.625 -28.408  0.00  0.00    -0.532 OA
ENDBRANCH  17  23
ENDBRANCH  12  14
TORSDOF 3
ENDMDL
MODEL 2
REMARK VINA RESULT:      -7.3      5.966      8.480
REMARK  3 active torsions:
REMARK  status: ('A' for Active; 'I' for Inactive)
REMARK    1  A    between atoms: N2_12  and  C10_13 
REMARK    2  A    between atoms: C13_16  and  N4_22 
REMARK    3  A    between atoms: C15_18  and  N3_19 
ROOT
ATOM      1  C1  <0> d          30.240  68.798 -19.190  0.00  0.00     0.092 C 
ATOM      2  C2  <0> d          30.378  70.294 -19.319  0.00  0.00     0.110 A 
ATOM      3  N1  <0> d          30.279  71.017 -18.246  0.00  0.00    -0.234 NA
ATOM      4  C3  <0> d          30.386  72.368 -18.286  0.00  0.00     0.074 A 
ATOM      5  C4  <0> d          30.274  73.147 -17.132  0.00  0.00     0.034 A 
ATOM      6  C5  <0> d          30.390  74.516 -17.218  0.00  0.00     0.020 A 
ATOM      7  C6  <0> d          30.616  75.135 -18.440  0.00  0.00     0.007 A 
ATOM      8  C7  <0> d          30.731  74.388 -19.594  0.00  0.00     0.037 A 
ATOM      9  C8  <0> d          30.617  73.001 -19.527  0.00  0.00     0.063 A 
ATOM     10  C9  <0> d          30.730  72.154 -20.724  0.00  0.00     0.266 A 
ATOM     11  O1  <0> d          30.928  72.637 -21.824  0.00  0.00    -0.267 OA
ATOM     12  N2  <0> d          30.604  70.817 -20.554  0.00  0.00    -0.263 N 
ATOM     13  I1  <0> d          30.786  77.221 -18.534  0.00  0.00    -0.045 I 
ENDROOT
BRANCH  12  14
ATOM     14  C10 <0> d          30.703  69.965 -21.662  0.00  0.00     0.077 A 
ATOM     15  C15 <0> d          29.577  69.680 -22.422  0.00  0.00     0.132 A 
ATOM     16  C14 <0> d          29.678  68.839 -23.514  0.00  0.00     0.074 A 
ATOM     17  C13 <0> d          30.896  68.276 -23.845  0.00  0.00     0.105 A 
ATOM     18  C12 <0> d          32.021  68.564 -23.092  0.00  0.00     0.038 A 
ATOM     19  C11 <0> d          31.927  69.403 -22.000  0.00  0.00     0.035 A 
BRANCH  15  20
ATOM     20  N3  <0> d          28.270  70.277 -22.065  0.00  0.00    -0.113 N 
ATOM     21  O2  <0> d          27.535  69.708 -21.280  0.00  0.00    -0.532 OA
ATOM     22  O3  <0> d          27.931  71.339 -22.558  0.00  0.00    -0.532 OA
ENDBRANCH  15  20
BRANCH  17  23
ATOM     23  N4  <0> d          30.999  67.371 -25.011  0.00  0.00    -0.116 N 
ATOM     24  O4  <0> d          31.956  66.625 -25.121  0.00  0.00    -0.532 OA
ATOM     25  O5  <0> d          30.126  67.372 -25.861  0.00  0.00    -0.532 OA
ENDBRANCH  17  23
ENDBRANCH  12  14
TORSDOF 3
ENDMDL
MODEL 3
REMARK VINA RESULT:      -7.2      6.852      9.164
REMARK  3 active torsions:
REMARK  status: ('A' for Active; 'I' for Inactive)
REMARK    1  A    between atoms: N2_12  and  C10_13 
REMARK    2  A    between atoms: C13_16  and  N4_22 
REMARK    3  A    between atoms: C15_18  and  N3_19 
ROOT
ATOM      1  C1  <0> d          30.731  69.217 -18.829  0.00  0.00     0.092 C 
ATOM      2  C2  <0> d          29.328  69.424 -19.339  0.00  0.00     0.110 A 
ATOM      3  N1  <0> d          28.391  68.638 -18.903  0.00  0.00    -0.234 NA
ATOM      4  C3  <0> d          27.107  68.762 -19.322  0.00  0.00     0.074 A 
ATOM      5  C4  <0> d          26.100  67.912 -18.858  0.00  0.00     0.034 A 
ATOM      6  C5  <0> d          24.810  68.074 -19.309  0.00  0.00     0.020 A 
ATOM      7  C6  <0> d          24.494  69.071 -20.222  0.00  0.00     0.007 A 
ATOM      8  C7  <0> d          25.471  69.923 -20.695  0.00  0.00     0.037 A 
ATOM      9  C8  <0> d          26.783  69.775 -20.250  0.00  0.00     0.063 A 
ATOM     10  C9  <0> d          27.865  70.653 -20.720  0.00  0.00     0.266 A 
ATOM     11  O1  <0> d          27.653  71.546 -21.520  0.00  0.00    -0.267 OA
ATOM     12  N2  <0> d          29.106  70.429 -20.229  0.00  0.00    -0.263 N 
ATOM     13  I1  <0> d          22.520  69.286 -20.888  0.00  0.00    -0.045 I 
ENDROOT
BRANCH  12  14
ATOM     14  C10 <0> d          30.173  71.236 -20.644  0.00  0.00     0.077 A 
ATOM     15  C15 <0> d          30.935  70.870 -21.745  0.00  0.00     0.132 A 
ATOM     16  C14 <0> d          31.986  71.669 -22.152  0.00  0.00     0.074 A 
ATOM     17  C13 <0> d          32.285  72.827 -21.460  0.00  0.00     0.105 A 
ATOM     18  C12 <0> d          31.524  73.197 -20.365  0.00  0.00     0.038 A 
ATOM     19  C11 <0> d          30.472  72.404 -19.953  0.00  0.00     0.035 A 
BRANCH  15  20
ATOM     20  N3  <0> d          30.620  69.627 -22.484  0.00  0.00    -0.113 N 
ATOM     21  O2  <0> d          31.199  68.592 -22.210  0.00  0.00    -0.532 OA
ATOM     22  O3  <0> d          29.780  69.640 -23.367  0.00  0.00    -0.532 OA
ENDBRANCH  15  20
BRANCH  17  23
ATOM     23  N4  <0> d          33.417  73.676 -21.895  0.00  0.00    -0.116 N 
ATOM     24  O4  <0> d          34.012  73.417 -22.925  0.00  0.00    -0.532 OA
ATOM     25  O5  <0> d          33.752  74.635 -21.222  0.00  0.00    -0.532 OA
ENDBRANCH  17  23
ENDBRANCH  12  14
TORSDOF 3
ENDMDL
MODEL 4
REMARK VINA RESULT:      -7.2      3.409      4.861
REMARK  3 active torsions:
REMARK  status: ('A' for Active; 'I' for Inactive)
REMARK    1  A    between atoms: N2_12  and  C10_13 
REMARK    2  A    between atoms: C13_16  and  N4_22 
REMARK    3  A    between atoms: C15_18  and  N3_19 
ROOT
ATOM      1  C1  <0> d          29.086  69.589 -24.119  0.00  0.00     0.092 C 
ATOM      2  C2  <0> d          27.684  69.482 -23.576  0.00  0.00     0.110 A 
ATOM      3  N1  <0> d          27.529  69.287 -22.303  0.00  0.00    -0.234 NA
ATOM      4  C3  <0> d          26.297  69.176 -21.745  0.00  0.00     0.074 A 
ATOM      5  C4  <0> d          26.130  68.960 -20.375  0.00  0.00     0.034 A 
ATOM      6  C5  <0> d          24.862  68.854 -19.851  0.00  0.00     0.020 A 
ATOM      7  C6  <0> d          23.744  68.957 -20.667  0.00  0.00     0.007 A 
ATOM      8  C7  <0> d          23.882  69.170 -22.022  0.00  0.00     0.037 A 
ATOM      9  C8  <0> d          25.158  69.281 -22.572  0.00  0.00     0.063 A 
ATOM     10  C9  <0> d          25.366  69.507 -24.010  0.00  0.00     0.266 A 
ATOM     11  O1  <0> d          24.427  69.607 -24.778  0.00  0.00    -0.267 OA
ATOM     12  N2  <0> d          26.644  69.601 -24.447  0.00  0.00    -0.263 N 
ATOM     13  I1  <0> d          21.829  68.788 -19.834  0.00  0.00    -0.045 I 
ENDROOT
BRANCH  12  14
ATOM     14  C10 <0> d          26.899  69.815 -25.807  0.00  0.00     0.077 A 
ATOM     15  C15 <0> d          26.877  71.104 -26.324  0.00  0.00     0.132 A 
ATOM     16  C14 <0> d          27.128  71.312 -27.666  0.00  0.00     0.074 A 
ATOM     17  C13 <0> d          27.395  70.239 -28.496  0.00  0.00     0.105 A 
ATOM     18  C12 <0> d          27.423  68.955 -27.982  0.00  0.00     0.038 A 
ATOM     19  C11 <0> d          27.173  68.739 -26.642  0.00  0.00     0.035 A 
BRANCH  15  20
ATOM     20  N3  <0> d          26.585  72.253 -25.438  0.00  0.00    -0.113 N 
ATOM     21  O2  <0> d          25.466  72.730 -25.407  0.00  0.00    -0.532 OA
ATOM     22  O3  <0> d          27.466  72.721 -24.738  0.00  0.00    -0.532 OA
ENDBRANCH  15  20
BRANCH  17  23
ATOM     23  N4  <0> d          27.658  70.466 -29.935  0.00  0.00    -0.116 N 
ATOM     24  O4  <0> d          28.216  69.607 -30.595  0.00  0.00    -0.532 OA
ATOM     25  O5  <0> d          27.316  71.511 -30.459  0.00  0.00    -0.532 OA
ENDBRANCH  17  23
ENDBRANCH  12  14
TORSDOF 3
ENDMDL
MODEL 5
REMARK VINA RESULT:      -7.1      3.556      7.116
REMARK  3 active torsions:
REMARK  status: ('A' for Active; 'I' for Inactive)
REMARK    1  A    between atoms: N2_12  and  C10_13 
REMARK    2  A    between atoms: C13_16  and  N4_22 
REMARK    3  A    between atoms: C15_18  and  N3_19 
ROOT
ATOM      1  C1  <0> d          27.106  72.297 -26.974  0.00  0.00     0.092 C 
ATOM      2  C2  <0> d          25.845  71.543 -27.313  0.00  0.00     0.110 A 
ATOM      3  N1  <0> d          24.885  72.182 -27.906  0.00  0.00    -0.234 NA
ATOM      4  C3  <0> d          23.720  71.570 -28.237  0.00  0.00     0.074 A 
ATOM      5  C4  <0> d          22.684  72.260 -28.870  0.00  0.00     0.034 A 
ATOM      6  C5  <0> d          21.519  71.599 -29.188  0.00  0.00     0.020 A 
ATOM      7  C6  <0> d          21.359  70.254 -28.886  0.00  0.00     0.007 A 
ATOM      8  C7  <0> d          22.367  69.551 -28.262  0.00  0.00     0.037 A 
ATOM      9  C8  <0> d          23.554  70.202 -27.932  0.00  0.00     0.063 A 
ATOM     10  C9  <0> d          24.663  69.503 -27.265  0.00  0.00     0.266 A 
ATOM     11  O1  <0> d          24.584  68.323 -26.974  0.00  0.00    -0.267 OA
ATOM     12  N2  <0> d          25.775  70.223 -26.986  0.00  0.00    -0.263 N 
ATOM     13  I1  <0> d          19.571  69.282 -29.384  0.00  0.00    -0.045 I 
ENDROOT
BRANCH  12  14
ATOM     14  C10 <0> d          26.860  69.607 -26.351  0.00  0.00     0.077 A 
ATOM     15  C15 <0> d          27.788  68.893 -27.096  0.00  0.00     0.132 A 
ATOM     16  C14 <0> d          28.858  68.286 -26.466  0.00  0.00     0.074 A 
ATOM     17  C13 <0> d          29.001  68.383 -25.095  0.00  0.00     0.105 A 
ATOM     18  C12 <0> d          28.080  69.099 -24.351  0.00  0.00     0.038 A 
ATOM     19  C11 <0> d          27.009  69.708 -24.973  0.00  0.00     0.035 A 
BRANCH  15  20
ATOM     20  N3  <0> d          27.633  68.782 -28.564  0.00  0.00    -0.113 N 
ATOM     21  O2  <0> d          28.030  69.676 -29.288  0.00  0.00    -0.532 OA
ATOM     22  O3  <0> d          27.108  67.794 -29.048  0.00  0.00    -0.532 OA
ENDBRANCH  15  20
BRANCH  17  23
ATOM     23  N4  <0> d          30.144  67.726 -24.423  0.00  0.00    -0.116 N 
ATOM     24  O4  <0> d          31.129  68.376 -24.121  0.00  0.00    -0.532 OA
ATOM     25  O5  <0> d          30.100  66.535 -24.173  0.00  0.00    -0.532 OA
ENDBRANCH  17  23
ENDBRANCH  12  14
TORSDOF 3
ENDMDL
MODEL 6
REMARK VINA RESULT:      -7.0      4.828      8.423
REMARK  3 active torsions:
REMARK  status: ('A' for Active; 'I' for Inactive)
REMARK    1  A    between atoms: N2_12  and  C10_13 
REMARK    2  A    between atoms: C13_16  and  N4_22 
REMARK    3  A    between atoms: C15_18  and  N3_19 
ROOT
ATOM      1  C1  <0> d          31.747  69.092 -23.087  0.00  0.00     0.092 C 
ATOM      2  C2  <0> d          30.318  69.250 -23.540  0.00  0.00     0.110 A 
ATOM      3  N1  <0> d          30.033  68.992 -24.779  0.00  0.00    -0.234 NA
ATOM      4  C3  <0> d          28.770  69.116 -25.260  0.00  0.00     0.074 A 
ATOM      5  C4  <0> d          28.464  68.844 -26.595  0.00  0.00     0.034 A 
ATOM      6  C5  <0> d          27.169  68.984 -27.040  0.00  0.00     0.020 A 
ATOM      7  C6  <0> d          26.161  69.394 -26.178  0.00  0.00     0.007 A 
ATOM      8  C7  <0> d          26.438  69.668 -24.856  0.00  0.00     0.037 A 
ATOM      9  C8  <0> d          27.742  69.533 -24.386  0.00  0.00     0.063 A 
ATOM     10  C9  <0> d          28.097  69.813 -22.986  0.00  0.00     0.266 A 
ATOM     11  O1  <0> d          27.258  70.175 -22.182  0.00  0.00    -0.267 OA
ATOM     12  N2  <0> d          29.392  69.651 -22.628  0.00  0.00    -0.263 N 
ATOM     13  I1  <0> d          24.201  69.597 -26.891  0.00  0.00    -0.045 I 
ENDROOT
BRANCH  12  14
ATOM     14  C10 <0> d          29.783  69.905 -21.307  0.00  0.00     0.077 A 
ATOM     15  C15 <0> d          30.254  71.161 -20.950  0.00  0.00     0.132 A 
ATOM     16  C14 <0> d          30.640  71.407 -19.646  0.00  0.00     0.074 A 
ATOM     17  C13 <0> d          30.562  70.403 -18.699  0.00  0.00     0.105 A 
ATOM     18  C12 <0> d          30.088  69.152 -19.051  0.00  0.00     0.038 A 
ATOM     19  C11 <0> d          29.701  68.899 -20.352  0.00  0.00     0.035 A 
BRANCH  15  20
ATOM     20  N3  <0> d          30.344  72.235 -21.964  0.00  0.00    -0.113 N 
ATOM     21  O2  <0> d          31.432  72.629 -22.340  0.00  0.00    -0.532 OA
ATOM     22  O3  <0> d          29.326  72.724 -22.424  0.00  0.00    -0.532 OA
ENDBRANCH  15  20
BRANCH  17  23
ATOM     23  N4  <0> d          30.982  70.669 -17.305  0.00  0.00    -0.116 N 
ATOM     24  O4  <0> d          30.693  69.882 -16.421  0.00  0.00    -0.532 OA
ATOM     25  O5  <0> d          31.615  71.676 -17.042  0.00  0.00    -0.532 OA
ENDBRANCH  17  23
ENDBRANCH  12  14
TORSDOF 3
ENDMDL
MODEL 7
REMARK VINA RESULT:      -7.0      3.194      4.880
REMARK  3 active torsions:
REMARK  status: ('A' for Active; 'I' for Inactive)
REMARK    1  A    between atoms: N2_12  and  C10_13 
REMARK    2  A    between atoms: C13_16  and  N4_22 
REMARK    3  A    between atoms: C15_18  and  N3_19 
ROOT
ATOM      1  C1  <0> d          24.980  69.265 -23.539  0.00  0.00     0.092 C 
ATOM      2  C2  <0> d          26.206  69.409 -22.675  0.00  0.00     0.110 A 
ATOM      3  N1  <0> d          26.091  69.194 -21.401  0.00  0.00    -0.234 NA
ATOM      4  C3  <0> d          27.150  69.310 -20.561  0.00  0.00     0.074 A 
ATOM      5  C4  <0> d          27.025  69.084 -19.188  0.00  0.00     0.034 A 
ATOM      6  C5  <0> d          28.126  69.213 -18.372  0.00  0.00     0.020 A 
ATOM      7  C6  <0> d          29.363  69.566 -18.896  0.00  0.00     0.007 A 
ATOM      8  C7  <0> d          29.512  69.794 -20.248  0.00  0.00     0.037 A 
ATOM      9  C8  <0> d          28.409  69.669 -21.090  0.00  0.00     0.063 A 
ATOM     10  C9  <0> d          28.509  69.901 -22.539  0.00  0.00     0.266 A 
ATOM     11  O1  <0> d          29.564  70.212 -23.059  0.00  0.00    -0.267 OA
ATOM     12  N2  <0> d          27.380  69.754 -23.272  0.00  0.00    -0.263 N 
ATOM     13  I1  <0> d          31.016  69.754 -17.623  0.00  0.00    -0.045 I 
ENDROOT
BRANCH  12  14
ATOM     14  C10 <0> d          27.419  69.963 -24.656  0.00  0.00     0.077 A 
ATOM     15  C15 <0> d          27.143  71.219 -25.178  0.00  0.00     0.132 A 
ATOM     16  C14 <0> d          27.183  71.422 -26.544  0.00  0.00     0.074 A 
ATOM     17  C13 <0> d          27.491  70.375 -27.392  0.00  0.00     0.105 A 
ATOM     18  C12 <0> d          27.773  69.123 -26.874  0.00  0.00     0.038 A 
ATOM     19  C11 <0> d          27.735  68.913 -25.510  0.00  0.00     0.035 A 
BRANCH  15  20
ATOM     20  N3  <0> d          26.807  72.340 -24.272  0.00  0.00    -0.113 N 
ATOM     21  O2  <0> d          25.643  72.594 -24.022  0.00  0.00    -0.532 OA
ATOM     22  O3  <0> d          27.696  73.010 -23.776  0.00  0.00    -0.532 OA
ENDBRANCH  15  20
BRANCH  17  23
ATOM     23  N4  <0> d          27.526  70.595 -28.855  0.00  0.00    -0.116 N 
ATOM     24  O4  <0> d          26.802  71.432 -29.363  0.00  0.00    -0.532 OA
ATOM     25  O5  <0> d          28.279  69.937 -29.551  0.00  0.00    -0.532 OA
ENDBRANCH  17  23
ENDBRANCH  12  14
TORSDOF 3
ENDMDL
MODEL 8
REMARK VINA RESULT:      -6.8      4.359      7.539
REMARK  3 active torsions:
REMARK  status: ('A' for Active; 'I' for Inactive)
REMARK    1  A    between atoms: N2_12  and  C10_13 
REMARK    2  A    between atoms: C13_16  and  N4_22 
REMARK    3  A    between atoms: C15_18  and  N3_19 
ROOT
ATOM      1  C1  <0> d          29.298  69.112 -23.840  0.00  0.00     0.092 C 
ATOM      2  C2  <0> d          27.878  69.239 -24.330  0.00  0.00     0.110 A 
ATOM      3  N1  <0> d          27.650  69.113 -25.601  0.00  0.00    -0.234 NA
ATOM      4  C3  <0> d          26.400  69.220 -26.115  0.00  0.00     0.074 A 
ATOM      5  C4  <0> d          26.156  69.091 -27.484  0.00  0.00     0.034 A 
ATOM      6  C5  <0> d          24.870  69.207 -27.962  0.00  0.00     0.020 A 
ATOM      7  C6  <0> d          23.810  69.453 -27.100  0.00  0.00     0.007 A 
ATOM      8  C7  <0> d          24.025  69.584 -25.744  0.00  0.00     0.037 A 
ATOM      9  C8  <0> d          25.319  69.470 -25.241  0.00  0.00     0.063 A 
ATOM     10  C9  <0> d          25.608  69.602 -23.805  0.00  0.00     0.266 A 
ATOM     11  O1  <0> d          24.722  69.817 -22.998  0.00  0.00    -0.267 OA
ATOM     12  N2  <0> d          26.898  69.474 -23.415  0.00  0.00    -0.263 N 
ATOM     13  I1  <0> d          21.866  69.625 -27.864  0.00  0.00    -0.045 I 
ENDROOT
BRANCH  12  14
ATOM     14  C10 <0> d          27.228  69.592 -22.059  0.00  0.00     0.077 A 
ATOM     15  C15 <0> d          27.554  70.832 -21.528  0.00  0.00     0.132 A 
ATOM     16  C14 <0> d          27.879  70.944 -20.189  0.00  0.00     0.074 A 
ATOM     17  C13 <0> d          27.887  69.822 -19.381  0.00  0.00     0.105 A 
ATOM     18  C12 <0> d          27.557  68.586 -19.908  0.00  0.00     0.038 A 
ATOM     19  C11 <0> d          27.231  68.466 -21.244  0.00  0.00     0.035 A 
BRANCH  15  20
ATOM     20  N3  <0> d          27.552  72.033 -22.392  0.00  0.00    -0.113 N 
ATOM     21  O2  <0> d          26.525  72.667 -22.551  0.00  0.00    -0.532 OA
ATOM     22  O3  <0> d          28.579  72.387 -22.944  0.00  0.00    -0.532 OA
ENDBRANCH  15  20
BRANCH  17  23
ATOM     23  N4  <0> d          28.242  69.945 -17.950  0.00  0.00    -0.116 N 
ATOM     24  O4  <0> d          29.325  69.551 -17.555  0.00  0.00    -0.532 OA
ATOM     25  O5  <0> d          27.451  70.440 -17.167  0.00  0.00    -0.532 OA
ENDBRANCH  17  23
ENDBRANCH  12  14
TORSDOF 3
ENDMDL
MODEL 9
REMARK VINA RESULT:      -6.8     22.712     24.975
REMARK  3 active torsions:
REMARK  status: ('A' for Active; 'I' for Inactive)
REMARK    1  A    between atoms: N2_12  and  C10_13 
REMARK    2  A    between atoms: C13_16  and  N4_22 
REMARK    3  A    between atoms: C15_18  and  N3_19 
ROOT
ATOM      1  C1  <0> d          32.087  55.109  -5.988  0.00  0.00     0.092 C 
ATOM      2  C2  <0> d          32.789  56.241  -5.282  0.00  0.00     0.110 A 
ATOM      3  N1  <0> d          33.970  56.025  -4.793  0.00  0.00    -0.234 NA
ATOM      4  C3  <0> d          34.659  56.995  -4.141  0.00  0.00     0.074 A 
ATOM      5  C4  <0> d          35.929  56.760  -3.608  0.00  0.00     0.034 A 
ATOM      6  C5  <0> d          36.592  57.774  -2.954  0.00  0.00     0.020 A 
ATOM      7  C6  <0> d          36.014  59.028  -2.814  0.00  0.00     0.007 A 
ATOM      8  C7  <0> d          34.761  59.285  -3.330  0.00  0.00     0.037 A 
ATOM      9  C8  <0> d          34.074  58.272  -3.996  0.00  0.00     0.063 A 
ATOM     10  C9  <0> d          32.736  58.487  -4.567  0.00  0.00     0.266 A 
ATOM     11  O1  <0> d          32.176  59.564  -4.478  0.00  0.00    -0.267 OA
ATOM     12  N2  <0> d          32.151  57.440  -5.195  0.00  0.00    -0.263 N 
ATOM     13  I1  <0> d          37.052  60.546  -1.810  0.00  0.00    -0.045 I 
ENDROOT
BRANCH  12  14
ATOM     14  C10 <0> d          30.876  57.591  -5.756  0.00  0.00     0.077 A 
ATOM     15  C15 <0> d          30.735  58.140  -7.023  0.00  0.00     0.132 A 
ATOM     16  C14 <0> d          29.476  58.288  -7.573  0.00  0.00     0.074 A 
ATOM     17  C13 <0> d          28.358  57.896  -6.861  0.00  0.00     0.105 A 
ATOM     18  C12 <0> d          28.497  57.343  -5.600  0.00  0.00     0.038 A 
ATOM     19  C11 <0> d          29.752  57.193  -5.044  0.00  0.00     0.035 A 
BRANCH  15  20
ATOM     20  N3  <0> d          31.930  58.566  -7.785  0.00  0.00    -0.113 N 
ATOM     21  O2  <0> d          32.209  59.747  -7.871  0.00  0.00    -0.532 OA
ATOM     22  O3  <0> d          32.636  57.732  -8.326  0.00  0.00    -0.532 OA
ENDBRANCH  15  20
BRANCH  17  23
ATOM     23  N4  <0> d          27.010  58.061  -7.451  0.00  0.00    -0.116 N 
ATOM     24  O4  <0> d          26.888  58.538  -8.565  0.00  0.00    -0.532 OA
ATOM     25  O5  <0> d          26.024  57.722  -6.821  0.00  0.00    -0.532 OA
ENDBRANCH  17  23
ENDBRANCH  12  14
TORSDOF 3
ENDMDL
MODEL 10
REMARK VINA RESULT:      -6.8      5.585      8.311
REMARK  3 active torsions:
REMARK  status: ('A' for Active; 'I' for Inactive)
REMARK    1  A    between atoms: N2_12  and  C10_13 
REMARK    2  A    between atoms: C13_16  and  N4_22 
REMARK    3  A    between atoms: C15_18  and  N3_19 
ROOT
ATOM      1  C1  <0> d          30.513  68.795 -19.495  0.00  0.00     0.092 C 
ATOM      2  C2  <0> d          30.543  70.300 -19.580  0.00  0.00     0.110 A 
ATOM      3  N1  <0> d          30.659  70.978 -18.480  0.00  0.00    -0.234 NA
ATOM      4  C3  <0> d          30.688  72.334 -18.479  0.00  0.00     0.074 A 
ATOM      5  C4  <0> d          30.806  73.063 -17.294  0.00  0.00     0.034 A 
ATOM      6  C5  <0> d          30.832  74.439 -17.339  0.00  0.00     0.020 A 
ATOM      7  C6  <0> d          30.741  75.113 -18.550  0.00  0.00     0.007 A 
ATOM      8  C7  <0> d          30.623  74.415 -19.733  0.00  0.00     0.037 A 
ATOM      9  C8  <0> d          30.595  73.022 -19.708  0.00  0.00     0.063 A 
ATOM     10  C9  <0> d          30.471  72.226 -20.939  0.00  0.00     0.266 A 
ATOM     11  O1  <0> d          30.388  72.758 -22.031  0.00  0.00    -0.267 OA
ATOM     12  N2  <0> d          30.454  70.879 -20.809  0.00  0.00    -0.263 N 
ATOM     13  I1  <0> d          30.782  77.207 -18.580  0.00  0.00    -0.045 I 
ENDROOT
BRANCH  12  14
ATOM     14  C10 <0> d          30.337  70.073 -21.949  0.00  0.00     0.077 A 
ATOM     15  C15 <0> d          31.469  69.720 -22.670  0.00  0.00     0.132 A 
ATOM     16  C14 <0> d          31.350  68.925 -23.794  0.00  0.00     0.074 A 
ATOM     17  C13 <0> d          30.104  68.488 -24.205  0.00  0.00     0.105 A 
ATOM     18  C12 <0> d          28.975  68.834 -23.485  0.00  0.00     0.038 A 
ATOM     19  C11 <0> d          29.087  69.628 -22.361  0.00  0.00     0.035 A 
BRANCH  15  20
ATOM     20  N3  <0> d          32.802  70.192 -22.235  0.00  0.00    -0.113 N 
ATOM     21  O2  <0> d          33.317  71.150 -22.780  0.00  0.00    -0.532 OA
ATOM     22  O3  <0> d          33.385  69.621 -21.329  0.00  0.00    -0.532 OA
ENDBRANCH  15  20
BRANCH  17  23
ATOM     23  N4  <0> d          29.980  67.642 -25.413  0.00  0.00    -0.116 N 
ATOM     24  O4  <0> d          30.871  66.864 -25.706  0.00  0.00    -0.532 OA
ATOM     25  O5  <0> d          28.988  67.725 -26.114  0.00  0.00    -0.532 OA
ENDBRANCH  17  23
ENDBRANCH  12  14
TORSDOF 3
ENDMDL
