MODEL 1
REMARK VINA RESULT:      -7.5      0.000      0.000
REMARK  4 active torsions:
REMARK  status: ('A' for Active; 'I' for Inactive)
REMARK    1  A    between atoms: C7_7  and  C8_8 
REMARK    2  A    between atoms: C9_9  and  C10_10 
REMARK    3  A    between atoms: C10_10  and  C11_12 
REMARK    4  A    between atoms: C17_19  and  O3_20 
ROOT
ATOM      1  C11 <0> d          30.568  70.388 -20.945  0.00  0.00     0.052 A 
ATOM      2  C12 <0> d          31.462  69.830 -21.872  0.00  0.00     0.037 A 
ATOM      3  C13 <0> d          32.540  70.412 -22.499  0.00  0.00     0.013 A 
ATOM      4  C14 <0> d          33.044  71.705 -22.381  0.00  0.00     0.042 A 
ATOM      5  C15 <0> d          32.592  72.749 -21.603  0.00  0.00     0.065 A 
ATOM      6  C16 <0> d          31.494  72.772 -20.722  0.00  0.00     0.223 A 
ATOM      7  O2  <0> d          31.293  73.828 -20.140  0.00  0.00    -0.284 OA
ATOM      8  C17 <0> d          30.564  71.682 -20.422  0.00  0.00     0.131 A 
ATOM      9 Br1  <0> d          33.573  74.360 -21.737  0.00  0.00    -0.047 Br
ATOM     10 Br2  <0> d          33.479  69.288 -23.695  0.00  0.00    -0.051 Br
ENDROOT
BRANCH   1  11
ATOM     11  C10 <0> d          29.499  69.490 -20.456  0.00  0.00     0.185 C 
ATOM     12  O1  <0> d          29.655  68.861 -19.425  0.00  0.00    -0.287 OA
BRANCH  11  13
ATOM     13  C9  <0> d          28.253  69.358 -21.210  0.00  0.00     0.056 C 
ATOM     14  C8  <0> d          28.224  69.667 -22.526  0.00  0.00     0.016 C 
BRANCH  14  15
ATOM     15  C7  <0> d          26.971  69.534 -23.284  0.00  0.00    -0.030 A 
ATOM     16  C2  <0> d          26.995  69.506 -24.682  0.00  0.00    -0.052 A 
ATOM     17  C1  <0> d          28.307  69.610 -25.418  0.00  0.00     0.049 C 
ATOM     18  C3  <0> d          25.816  69.381 -25.387  0.00  0.00     0.007 A 
ATOM     19  C4  <0> d          24.611  69.285 -24.713  0.00  0.00     0.001 A 
ATOM     20  C5  <0> d          24.579  69.313 -23.329  0.00  0.00     0.001 A 
ATOM     21  C6  <0> d          25.748  69.437 -22.611  0.00  0.00     0.012 A 
ENDBRANCH  14  15
ENDBRANCH  11  13
ENDBRANCH   1  11
BRANCH   8  22
ATOM     22  O3  <0> d          29.585  71.962 -19.532  0.00  0.00    -0.356 OA
ATOM     23  H12 <0> d          29.609  72.868 -19.192  0.00  0.00     0.218 HD
ENDBRANCH   8  22
TORSDOF 4
ENDMDL
MODEL 2
REMARK VINA RESULT:      -7.3      3.910      7.220
REMARK  4 active torsions:
REMARK  status: ('A' for Active; 'I' for Inactive)
REMARK    1  A    between atoms: C7_7  and  C8_8 
REMARK    2  A    between atoms: C9_9  and  C10_10 
REMARK    3  A    between atoms: C10_10  and  C11_12 
REMARK    4  A    between atoms: C17_19  and  O3_20 
ROOT
ATOM      1  C11 <0> d          28.182  69.319 -23.945  0.00  0.00     0.052 A 
ATOM      2  C12 <0> d          26.931  69.346 -23.310  0.00  0.00     0.037 A 
ATOM      3  C13 <0> d          25.675  69.423 -23.868  0.00  0.00     0.013 A 
ATOM      4  C14 <0> d          25.301  69.484 -25.208  0.00  0.00     0.042 A 
ATOM      5  C15 <0> d          26.094  69.487 -26.335  0.00  0.00     0.065 A 
ATOM      6  C16 <0> d          27.498  69.430 -26.417  0.00  0.00     0.223 A 
ATOM      7  O2  <0> d          27.973  69.447 -27.543  0.00  0.00    -0.284 OA
ATOM      8  C17 <0> d          28.457  69.352 -25.313  0.00  0.00     0.131 A 
ATOM      9 Br1  <0> d          25.177  69.582 -27.986  0.00  0.00    -0.047 Br
ATOM     10 Br2  <0> d          24.245  69.442 -22.631  0.00  0.00    -0.051 Br
ENDROOT
BRANCH   1  11
ATOM     11  C10 <0> d          29.359  69.238 -23.051  0.00  0.00     0.185 C 
ATOM     12  O1  <0> d          30.211  68.390 -23.241  0.00  0.00    -0.287 OA
BRANCH  11  13
ATOM     13  C9  <0> d          29.499  70.179 -21.940  0.00  0.00     0.056 C 
ATOM     14  C8  <0> d          30.583  70.118 -21.136  0.00  0.00     0.016 C 
BRANCH  14  15
ATOM     15  C7  <0> d          30.724  71.064 -20.019  0.00  0.00    -0.030 A 
ATOM     16  C2  <0> d          30.631  70.611 -18.698  0.00  0.00    -0.052 A 
ATOM     17  C1  <0> d          30.388  69.151 -18.415  0.00  0.00     0.049 C 
ATOM     18  C3  <0> d          30.764  71.505 -17.656  0.00  0.00     0.007 A 
ATOM     19  C4  <0> d          30.988  72.846 -17.914  0.00  0.00     0.001 A 
ATOM     20  C5  <0> d          31.080  73.301 -19.219  0.00  0.00     0.001 A 
ATOM     21  C6  <0> d          30.949  72.421 -20.271  0.00  0.00     0.012 A 
ENDBRANCH  14  15
ENDBRANCH  11  13
ENDBRANCH   1  11
BRANCH   8  22
ATOM     22  O3  <0> d          29.763  69.308 -25.660  0.00  0.00    -0.356 OA
ATOM     23  H12 <0> d          30.077  70.104 -26.112  0.00  0.00     0.218 HD
ENDBRANCH   8  22
TORSDOF 4
ENDMDL
MODEL 3
REMARK VINA RESULT:      -6.8      3.382      5.302
REMARK  4 active torsions:
REMARK  status: ('A' for Active; 'I' for Inactive)
REMARK    1  A    between atoms: C7_7  and  C8_8 
REMARK    2  A    between atoms: C9_9  and  C10_10 
REMARK    3  A    between atoms: C10_10  and  C11_12 
REMARK    4  A    between atoms: C17_19  and  O3_20 
ROOT
ATOM      1  C11 <0> d          27.808  70.205 -23.759  0.00  0.00     0.052 A 
ATOM      2  C12 <0> d          28.661  70.673 -22.748  0.00  0.00     0.037 A 
ATOM      3  C13 <0> d          29.940  70.272 -22.434  0.00  0.00     0.013 A 
ATOM      4  C14 <0> d          30.739  69.302 -23.036  0.00  0.00     0.042 A 
ATOM      5  C15 <0> d          30.457  68.483 -24.107  0.00  0.00     0.065 A 
ATOM      6  C16 <0> d          29.277  68.418 -24.872  0.00  0.00     0.223 A 
ATOM      7  O2  <0> d          29.269  67.599 -25.780  0.00  0.00    -0.284 OA
ATOM      8  C17 <0> d          28.059  69.212 -24.709  0.00  0.00     0.131 A 
ATOM      9 Br1  <0> d          31.834  67.290 -24.615  0.00  0.00    -0.047 Br
ATOM     10 Br2  <0> d          30.731  71.174 -20.973  0.00  0.00    -0.051 Br
ENDROOT
BRANCH   1  11
ATOM     11  C10 <0> d          26.477  70.847 -23.832  0.00  0.00     0.185 C 
ATOM     12  O1  <0> d          26.254  71.694 -24.677  0.00  0.00    -0.287 OA
BRANCH  11  13
ATOM     13  C9  <0> d          25.428  70.464 -22.888  0.00  0.00     0.056 C 
ATOM     14  C8  <0> d          25.584  69.368 -22.112  0.00  0.00     0.016 C 
BRANCH  14  15
ATOM     15  C7  <0> d          24.530  68.983 -21.163  0.00  0.00    -0.030 A 
ATOM     16  C2  <0> d          24.856  68.288 -19.993  0.00  0.00    -0.052 A 
ATOM     17  C1  <0> d          26.291  67.932 -19.701  0.00  0.00     0.049 C 
ATOM     18  C3  <0> d          23.861  67.930 -19.108  0.00  0.00     0.007 A 
ATOM     19  C4  <0> d          22.542  68.256 -19.375  0.00  0.00     0.001 A 
ATOM     20  C5  <0> d          22.211  68.943 -20.531  0.00  0.00     0.001 A 
ATOM     21  C6  <0> d          23.194  69.308 -21.426  0.00  0.00     0.012 A 
ENDBRANCH  14  15
ENDBRANCH  11  13
ENDBRANCH   1  11
BRANCH   8  22
ATOM     22  O3  <0> d          27.058  68.955 -25.581  0.00  0.00    -0.356 OA
ATOM     23  H12 <0> d          26.640  68.091 -25.457  0.00  0.00     0.218 HD
ENDBRANCH   8  22
TORSDOF 4
ENDMDL
MODEL 4
REMARK VINA RESULT:      -6.8      3.837      5.839
REMARK  4 active torsions:
REMARK  status: ('A' for Active; 'I' for Inactive)
REMARK    1  A    between atoms: C7_7  and  C8_8 
REMARK    2  A    between atoms: C9_9  and  C10_10 
REMARK    3  A    between atoms: C10_10  and  C11_12 
REMARK    4  A    between atoms: C17_19  and  O3_20 
ROOT
ATOM      1  C11 <0> d          28.020  70.377 -24.405  0.00  0.00     0.052 A 
ATOM      2  C12 <0> d          28.790  69.206 -24.478  0.00  0.00     0.037 A 
ATOM      3  C13 <0> d          29.032  68.391 -25.561  0.00  0.00     0.013 A 
ATOM      4  C14 <0> d          28.590  68.509 -26.876  0.00  0.00     0.042 A 
ATOM      5  C15 <0> d          27.788  69.475 -27.444  0.00  0.00     0.065 A 
ATOM      6  C16 <0> d          27.204  70.599 -26.829  0.00  0.00     0.223 A 
ATOM      7  O2  <0> d          26.524  71.315 -27.550  0.00  0.00    -0.284 OA
ATOM      8  C17 <0> d          27.313  71.011 -25.428  0.00  0.00     0.131 A 
ATOM      9 Br1  <0> d          27.421  69.262 -29.286  0.00  0.00    -0.047 Br
ATOM     10 Br2  <0> d          30.132  66.894 -25.211  0.00  0.00    -0.051 Br
ENDROOT
BRANCH   1  11
ATOM     11  C10 <0> d          27.952  71.025 -23.076  0.00  0.00     0.185 C 
ATOM     12  O1  <0> d          28.473  72.111 -22.900  0.00  0.00    -0.287 OA
BRANCH  11  13
ATOM     13  C9  <0> d          27.259  70.360 -21.973  0.00  0.00     0.056 C 
ATOM     14  C8  <0> d          26.064  69.766 -22.186  0.00  0.00     0.016 C 
BRANCH  14  15
ATOM     15  C7  <0> d          25.368  69.097 -21.077  0.00  0.00    -0.030 A 
ATOM     16  C2  <0> d          23.989  69.266 -20.909  0.00  0.00    -0.052 A 
ATOM     17  C1  <0> d          23.212  70.134 -21.865  0.00  0.00     0.049 C 
ATOM     18  C3  <0> d          23.343  68.636 -19.866  0.00  0.00     0.007 A 
ATOM     19  C4  <0> d          24.055  67.839 -18.986  0.00  0.00     0.001 A 
ATOM     20  C5  <0> d          25.420  67.668 -19.146  0.00  0.00     0.001 A 
ATOM     21  C6  <0> d          26.081  68.290 -20.183  0.00  0.00     0.012 A 
ENDBRANCH  14  15
ENDBRANCH  11  13
ENDBRANCH   1  11
BRANCH   8  22
ATOM     22  O3  <0> d          26.651  72.139 -25.085  0.00  0.00    -0.356 OA
ATOM     23  H12 <0> d          25.691  72.077 -25.183  0.00  0.00     0.218 HD
ENDBRANCH   8  22
TORSDOF 4
ENDMDL
MODEL 5
REMARK VINA RESULT:      -6.6      2.982      4.460
REMARK  4 active torsions:
REMARK  status: ('A' for Active; 'I' for Inactive)
REMARK    1  A    between atoms: C7_7  and  C8_8 
REMARK    2  A    between atoms: C9_9  and  C10_10 
REMARK    3  A    between atoms: C10_10  and  C11_12 
REMARK    4  A    between atoms: C17_19  and  O3_20 
ROOT
ATOM      1  C11 <0> d          27.724  70.769 -21.359  0.00  0.00     0.052 A 
ATOM      2  C12 <0> d          27.059  69.633 -20.871  0.00  0.00     0.037 A 
ATOM      3  C13 <0> d          27.418  68.789 -19.844  0.00  0.00     0.013 A 
ATOM      4  C14 <0> d          28.528  68.835 -19.005  0.00  0.00     0.042 A 
ATOM      5  C15 <0> d          29.568  69.739 -18.983  0.00  0.00     0.065 A 
ATOM      6  C16 <0> d          29.772  70.858 -19.813  0.00  0.00     0.223 A 
ATOM      7  O2  <0> d          30.781  71.513 -19.596  0.00  0.00    -0.284 OA
ATOM      8  C17 <0> d          28.920  71.329 -20.907  0.00  0.00     0.131 A 
ATOM      9 Br1  <0> d          30.892  69.438 -17.667  0.00  0.00    -0.047 Br
ATOM     10 Br2  <0> d          26.223  67.360 -19.522  0.00  0.00    -0.051 Br
ENDROOT
BRANCH   1  11
ATOM     11  C10 <0> d          27.072  71.463 -22.491  0.00  0.00     0.185 C 
ATOM     12  O1  <0> d          26.401  72.459 -22.291  0.00  0.00    -0.287 OA
BRANCH  11  13
ATOM     13  C9  <0> d          27.235  70.954 -23.852  0.00  0.00     0.056 C 
ATOM     14  C8  <0> d          26.340  70.077 -24.357  0.00  0.00     0.016 C 
BRANCH  14  15
ATOM     15  C7  <0> d          26.503  69.565 -25.726  0.00  0.00    -0.030 A 
ATOM     16  C2  <0> d          25.379  69.279 -26.508  0.00  0.00    -0.052 A 
ATOM     17  C1  <0> d          23.995  69.494 -25.951  0.00  0.00     0.049 C 
ATOM     18  C3  <0> d          25.541  68.799 -27.791  0.00  0.00     0.007 A 
ATOM     19  C4  <0> d          26.811  68.599 -28.304  0.00  0.00     0.001 A 
ATOM     20  C5  <0> d          27.928  68.880 -27.535  0.00  0.00     0.001 A 
ATOM     21  C6  <0> d          27.784  69.360 -26.251  0.00  0.00     0.012 A 
ENDBRANCH  14  15
ENDBRANCH  11  13
ENDBRANCH   1  11
BRANCH   8  22
ATOM     22  O3  <0> d          29.342  72.437 -21.556  0.00  0.00    -0.356 OA
ATOM     23  H12 <0> d          28.715  73.173 -21.526  0.00  0.00     0.218 HD
ENDBRANCH   8  22
TORSDOF 4
ENDMDL
MODEL 6
REMARK VINA RESULT:      -6.6      3.927      6.734
REMARK  4 active torsions:
REMARK  status: ('A' for Active; 'I' for Inactive)
REMARK    1  A    between atoms: C7_7  and  C8_8 
REMARK    2  A    between atoms: C9_9  and  C10_10 
REMARK    3  A    between atoms: C10_10  and  C11_12 
REMARK    4  A    between atoms: C17_19  and  O3_20 
ROOT
ATOM      1  C11 <0> d          26.879  70.083 -20.040  0.00  0.00     0.052 A 
ATOM      2  C12 <0> d          26.357  69.947 -21.336  0.00  0.00     0.037 A 
ATOM      3  C13 <0> d          25.146  69.428 -21.735  0.00  0.00     0.013 A 
ATOM      4  C14 <0> d          24.107  68.906 -20.968  0.00  0.00     0.042 A 
ATOM      5  C15 <0> d          24.018  68.769 -19.600  0.00  0.00     0.065 A 
ATOM      6  C16 <0> d          24.966  69.124 -18.621  0.00  0.00     0.223 A 
ATOM      7  O2  <0> d          24.653  68.899 -17.461  0.00  0.00    -0.284 OA
ATOM      8  C17 <0> d          26.283  69.729 -18.828  0.00  0.00     0.131 A 
ATOM      9 Br1  <0> d          22.415  68.002 -18.952  0.00  0.00    -0.047 Br
ATOM     10 Br2  <0> d          24.847  69.428 -23.602  0.00  0.00    -0.051 Br
ENDROOT
BRANCH   1  11
ATOM     11  C10 <0> d          28.228  70.682 -19.946  0.00  0.00     0.185 C 
ATOM     12  O1  <0> d          28.401  71.698 -19.298  0.00  0.00    -0.287 OA
BRANCH  11  13
ATOM     13  C9  <0> d          29.357  70.052 -20.631  0.00  0.00     0.056 C 
ATOM     14  C8  <0> d          29.909  70.647 -21.712  0.00  0.00     0.016 C 
BRANCH  14  15
ATOM     15  C7  <0> d          31.043  70.014 -22.400  0.00  0.00    -0.030 A 
ATOM     16  C2  <0> d          30.817  69.073 -23.409  0.00  0.00    -0.052 A 
ATOM     17  C1  <0> d          29.408  68.703 -23.797  0.00  0.00     0.049 C 
ATOM     18  C3  <0> d          31.886  68.483 -24.050  0.00  0.00     0.007 A 
ATOM     19  C4  <0> d          33.181  68.820 -23.696  0.00  0.00     0.001 A 
ATOM     20  C5  <0> d          33.413  69.751 -22.697  0.00  0.00     0.001 A 
ATOM     21  C6  <0> d          32.355  70.349 -22.047  0.00  0.00     0.012 A 
ENDBRANCH  14  15
ENDBRANCH  11  13
ENDBRANCH   1  11
BRANCH   8  22
ATOM     22  O3  <0> d          27.008  69.974 -17.714  0.00  0.00    -0.356 OA
ATOM     23  H12 <0> d          27.325  69.177 -17.267  0.00  0.00     0.218 HD
ENDBRANCH   8  22
TORSDOF 4
ENDMDL
MODEL 7
REMARK VINA RESULT:      -6.6      5.226      7.210
REMARK  4 active torsions:
REMARK  status: ('A' for Active; 'I' for Inactive)
REMARK    1  A    between atoms: C7_7  and  C8_8 
REMARK    2  A    between atoms: C9_9  and  C10_10 
REMARK    3  A    between atoms: C10_10  and  C11_12 
REMARK    4  A    between atoms: C17_19  and  O3_20 
ROOT
ATOM      1  C11 <0> d          25.323  70.976 -25.264  0.00  0.00     0.052 A 
ATOM      2  C12 <0> d          24.347  70.135 -25.819  0.00  0.00     0.037 A 
ATOM      3  C13 <0> d          24.383  69.419 -26.994  0.00  0.00     0.013 A 
ATOM      4  C14 <0> d          25.396  69.324 -27.945  0.00  0.00     0.042 A 
ATOM      5  C15 <0> d          26.635  69.928 -27.963  0.00  0.00     0.065 A 
ATOM      6  C16 <0> d          27.194  70.804 -27.013  0.00  0.00     0.223 A 
ATOM      7  O2  <0> d          28.321  71.212 -27.255  0.00  0.00    -0.284 OA
ATOM      8  C17 <0> d          26.587  71.285 -25.770  0.00  0.00     0.131 A 
ATOM      9 Br1  <0> d          27.724  69.530 -29.457  0.00  0.00    -0.047 Br
ATOM     10 Br2  <0> d          22.829  68.409 -27.370  0.00  0.00    -0.051 Br
ENDROOT
BRANCH   1  11
ATOM     11  C10 <0> d          24.971  71.612 -23.975  0.00  0.00     0.185 C 
ATOM     12  O1  <0> d          24.422  72.698 -23.961  0.00  0.00    -0.287 OA
BRANCH  11  13
ATOM     13  C9  <0> d          25.283  70.935 -22.716  0.00  0.00     0.056 C 
ATOM     14  C8  <0> d          25.044  69.612 -22.584  0.00  0.00     0.016 C 
BRANCH  14  15
ATOM     15  C7  <0> d          25.357  68.932 -21.318  0.00  0.00    -0.030 A 
ATOM     16  C2  <0> d          24.336  68.629 -20.411  0.00  0.00    -0.052 A 
ATOM     17  C1  <0> d          22.909  68.999 -20.728  0.00  0.00     0.049 C 
ATOM     18  C3  <0> d          24.638  67.991 -19.226  0.00  0.00     0.007 A 
ATOM     19  C4  <0> d          25.947  67.651 -18.933  0.00  0.00     0.001 A 
ATOM     20  C5  <0> d          26.963  67.948 -19.826  0.00  0.00     0.001 A 
ATOM     21  C6  <0> d          26.678  68.585 -21.015  0.00  0.00     0.012 A 
ENDBRANCH  14  15
ENDBRANCH  11  13
ENDBRANCH   1  11
BRANCH   8  22
ATOM     22  O3  <0> d          27.338  72.127 -25.026  0.00  0.00    -0.356 OA
ATOM     23  H12 <0> d          27.478  72.993 -25.433  0.00  0.00     0.218 HD
ENDBRANCH   8  22
TORSDOF 4
ENDMDL
MODEL 8
REMARK VINA RESULT:      -6.6     25.269     27.975
REMARK  4 active torsions:
REMARK  status: ('A' for Active; 'I' for Inactive)
REMARK    1  A    between atoms: C7_7  and  C8_8 
REMARK    2  A    between atoms: C9_9  and  C10_10 
REMARK    3  A    between atoms: C10_10  and  C11_12 
REMARK    4  A    between atoms: C17_19  and  O3_20 
ROOT
ATOM      1  C11 <0> d           8.533  51.432 -26.641  0.00  0.00     0.052 A 
ATOM      2  C12 <0> d           8.004  50.845 -27.800  0.00  0.00     0.037 A 
ATOM      3  C13 <0> d           8.456  49.752 -28.506  0.00  0.00     0.013 A 
ATOM      4  C14 <0> d           9.551  48.928 -28.259  0.00  0.00     0.042 A 
ATOM      5  C15 <0> d          10.477  48.989 -27.241  0.00  0.00     0.065 A 
ATOM      6  C16 <0> d          10.551  49.914 -26.181  0.00  0.00     0.223 A 
ATOM      7  O2  <0> d          11.476  49.759 -25.396  0.00  0.00    -0.284 OA
ATOM      8  C17 <0> d           9.654  51.038 -25.908  0.00  0.00     0.131 A 
ATOM      9 Br1  <0> d          11.824  47.662 -27.271  0.00  0.00    -0.047 Br
ATOM     10 Br2  <0> d           7.436  49.302 -30.033  0.00  0.00    -0.051 Br
ENDROOT
BRANCH   1  11
ATOM     11  C10 <0> d           7.808  52.615 -26.126  0.00  0.00     0.185 C 
ATOM     12  O1  <0> d           7.130  52.523 -25.119  0.00  0.00    -0.287 OA
BRANCH  11  13
ATOM     13  C9  <0> d           7.907  53.894 -26.826  0.00  0.00     0.056 C 
ATOM     14  C8  <0> d           9.095  54.303 -27.324  0.00  0.00     0.016 C 
BRANCH  14  15
ATOM     15  C7  <0> d           9.195  55.589 -28.028  0.00  0.00    -0.030 A 
ATOM     16  C2  <0> d          10.448  56.145 -28.304  0.00  0.00    -0.052 A 
ATOM     17  C1  <0> d          11.704  55.426 -27.880  0.00  0.00     0.049 C 
ATOM     18  C3  <0> d          10.533  57.353 -28.964  0.00  0.00     0.007 A 
ATOM     19  C4  <0> d           9.382  58.015 -29.354  0.00  0.00     0.001 A 
ATOM     20  C5  <0> d           8.137  57.471 -29.084  0.00  0.00     0.001 A 
ATOM     21  C6  <0> d           8.035  56.265 -28.424  0.00  0.00     0.012 A 
ENDBRANCH  14  15
ENDBRANCH  11  13
ENDBRANCH   1  11
BRANCH   8  22
ATOM     22  O3  <0> d           9.945  51.782 -24.817  0.00  0.00    -0.356 OA
ATOM     23  H12 <0> d          10.294  52.660 -25.022  0.00  0.00     0.218 HD
ENDBRANCH   8  22
TORSDOF 4
ENDMDL
MODEL 9
REMARK VINA RESULT:      -6.6     18.441     20.807
REMARK  4 active torsions:
REMARK  status: ('A' for Active; 'I' for Inactive)
REMARK    1  A    between atoms: C7_7  and  C8_8 
REMARK    2  A    between atoms: C9_9  and  C10_10 
REMARK    3  A    between atoms: C10_10  and  C11_12 
REMARK    4  A    between atoms: C17_19  and  O3_20 
ROOT
ATOM      1  C11 <0> d          27.756  57.719  -7.375  0.00  0.00     0.052 A 
ATOM      2  C12 <0> d          29.096  57.303  -7.348  0.00  0.00     0.037 A 
ATOM      3  C13 <0> d          29.652  56.199  -6.742  0.00  0.00     0.013 A 
ATOM      4  C14 <0> d          29.040  55.193  -5.999  0.00  0.00     0.042 A 
ATOM      5  C15 <0> d          27.711  55.036  -5.671  0.00  0.00     0.065 A 
ATOM      6  C16 <0> d          26.623  55.865  -6.008  0.00  0.00     0.223 A 
ATOM      7  O2  <0> d          25.528  55.511  -5.594  0.00  0.00    -0.284 OA
ATOM      8  C17 <0> d          26.648  57.100  -6.793  0.00  0.00     0.131 A 
ATOM      9 Br1  <0> d          27.293  53.511  -4.634  0.00  0.00    -0.047 Br
ATOM     10 Br2  <0> d          31.522  56.021  -6.952  0.00  0.00    -0.051 Br
ENDROOT
BRANCH   1  11
ATOM     11  C10 <0> d          27.481  58.969  -8.118  0.00  0.00     0.185 C 
ATOM     12  O1  <0> d          26.880  58.929  -9.176  0.00  0.00    -0.287 OA
BRANCH  11  13
ATOM     13  C9  <0> d          27.932  60.252  -7.581  0.00  0.00     0.056 C 
ATOM     14  C8  <0> d          27.756  60.536  -6.272  0.00  0.00     0.016 C 
BRANCH  14  15
ATOM     15  C7  <0> d          28.209  61.827  -5.732  0.00  0.00    -0.030 A 
ATOM     16  C2  <0> d          29.197  61.868  -4.742  0.00  0.00    -0.052 A 
ATOM     17  C1  <0> d          29.802  60.588  -4.225  0.00  0.00     0.049 C 
ATOM     18  C3  <0> d          29.616  63.082  -4.241  0.00  0.00     0.007 A 
ATOM     19  C4  <0> d          29.061  64.258  -4.714  0.00  0.00     0.001 A 
ATOM     20  C5  <0> d          28.082  64.226  -5.694  0.00  0.00     0.001 A 
ATOM     21  C6  <0> d          27.653  63.021  -6.205  0.00  0.00     0.012 A 
ENDBRANCH  14  15
ENDBRANCH  11  13
ENDBRANCH   1  11
BRANCH   8  22
ATOM     22  O3  <0> d          25.458  57.715  -6.976  0.00  0.00    -0.356 OA
ATOM     23  H12 <0> d          24.867  57.253  -7.587  0.00  0.00     0.218 HD
ENDBRANCH   8  22
TORSDOF 4
ENDMDL
MODEL 10
REMARK VINA RESULT:      -6.3     13.324     15.820
REMARK  4 active torsions:
REMARK  status: ('A' for Active; 'I' for Inactive)
REMARK    1  A    between atoms: C7_7  and  C8_8 
REMARK    2  A    between atoms: C9_9  and  C10_10 
REMARK    3  A    between atoms: C10_10  and  C11_12 
REMARK    4  A    between atoms: C17_19  and  O3_20 
ROOT
ATOM      1  C11 <0> d          19.471  66.969 -30.788  0.00  0.00     0.052 A 
ATOM      2  C12 <0> d          18.121  66.727 -31.082  0.00  0.00     0.037 A 
ATOM      3  C13 <0> d          17.286  65.749 -30.590  0.00  0.00     0.013 A 
ATOM      4  C14 <0> d          17.546  64.744 -29.662  0.00  0.00     0.042 A 
ATOM      5  C15 <0> d          18.716  64.459 -28.991  0.00  0.00     0.065 A 
ATOM      6  C16 <0> d          19.956  65.119 -29.076  0.00  0.00     0.223 A 
ATOM      7  O2  <0> d          20.853  64.673 -28.375  0.00  0.00    -0.284 OA
ATOM      8  C17 <0> d          20.301  66.275 -29.905  0.00  0.00     0.131 A 
ATOM      9 Br1  <0> d          18.645  62.989 -27.803  0.00  0.00    -0.047 Br
ATOM     10 Br2  <0> d          15.522  65.780 -31.270  0.00  0.00    -0.051 Br
ENDROOT
BRANCH   1  11
ATOM     11  C10 <0> d          20.093  68.108 -31.499  0.00  0.00     0.185 C 
ATOM     12  O1  <0> d          20.577  69.030 -30.867  0.00  0.00    -0.287 OA
BRANCH  11  13
ATOM     13  C9  <0> d          20.129  68.127 -32.960  0.00  0.00     0.056 C 
ATOM     14  C8  <0> d          19.091  68.644 -33.655  0.00  0.00     0.016 C 
BRANCH  14  15
ATOM     15  C7  <0> d          19.127  68.663 -35.125  0.00  0.00    -0.030 A 
ATOM     16  C2  <0> d          18.013  68.245 -35.860  0.00  0.00    -0.052 A 
ATOM     17  C1  <0> d          16.770  67.774 -35.149  0.00  0.00     0.049 C 
ATOM     18  C3  <0> d          18.054  68.264 -37.239  0.00  0.00     0.007 A 
ATOM     19  C4  <0> d          19.194  68.696 -37.894  0.00  0.00     0.001 A 
ATOM     20  C5  <0> d          20.301  69.110 -37.173  0.00  0.00     0.001 A 
ATOM     21  C6  <0> d          20.276  69.097 -35.795  0.00  0.00     0.012 A 
ENDBRANCH  14  15
ENDBRANCH  11  13
ENDBRANCH   1  11
BRANCH   8  22
ATOM     22  O3  <0> d          21.572  66.724 -29.804  0.00  0.00    -0.356 OA
ATOM     23  H12 <0> d          21.686  67.445 -29.170  0.00  0.00     0.218 HD
ENDBRANCH   8  22
TORSDOF 4
ENDMDL
