MODEL 1
REMARK VINA RESULT:      -7.1      0.000      0.000
REMARK  4 active torsions:
REMARK  status: ('A' for Active; 'I' for Inactive)
REMARK    1  A    between atoms: C7_7  and  C8_8 
REMARK    2  A    between atoms: C9_9  and  C10_10 
REMARK    3  A    between atoms: C10_10  and  C11_12 
REMARK    4  A    between atoms: C17_19  and  O3_20 
ROOT
ATOM      1  C11 <0> d          28.190  69.622 -23.828  0.00  0.00     0.052 A 
ATOM      2  C12 <0> d          27.017  69.555 -23.060  0.00  0.00     0.037 A 
ATOM      3  C13 <0> d          25.710  69.442 -23.478  0.00  0.00     0.013 A 
ATOM      4  C14 <0> d          25.195  69.355 -24.769  0.00  0.00     0.042 A 
ATOM      5  C15 <0> d          25.861  69.362 -25.976  0.00  0.00     0.065 A 
ATOM      6  C16 <0> d          27.245  69.461 -26.210  0.00  0.00     0.223 A 
ATOM      7  O2  <0> d          27.596  69.446 -27.381  0.00  0.00    -0.284 OA
ATOM      8  C17 <0> d          28.315  69.581 -25.218  0.00  0.00     0.131 A 
ATOM      9 Br1  <0> d          24.773  69.223 -27.516  0.00  0.00    -0.047 Br
ATOM     10 Br2  <0> d          24.424  69.393 -22.093  0.00  0.00    -0.051 Br
ENDROOT
BRANCH   1  11
ATOM     11  C10 <0> d          29.453  69.748 -23.068  0.00  0.00     0.185 C 
ATOM     12  O1  <0> d          30.258  68.834 -23.068  0.00  0.00    -0.287 OA
BRANCH  11  13
ATOM     13  C9  <0> d          29.737  70.970 -22.317  0.00  0.00     0.056 C 
ATOM     14  C8  <0> d          30.943  71.139 -21.732  0.00  0.00     0.016 C 
BRANCH  14  15
ATOM     15  C7  <0> d          31.228  72.368 -20.977  0.00  0.00    -0.030 A 
ATOM     16  C2  <0> d          32.384  73.108 -21.249  0.00  0.00    -0.052 A 
ATOM     17  C1  <0> d          33.342  72.648 -22.318  0.00  0.00     0.049 C 
ATOM     18  C3  <0> d          32.644  74.260 -20.536  0.00  0.00     0.007 A 
ATOM     19  C4  <0> d          31.766  74.683 -19.554  0.00  0.00     0.001 A 
ATOM     20  C5  <0> d          30.620  73.956 -19.278  0.00  0.00     0.001 A 
ATOM     21  C6  <0> d          30.346  72.802 -19.982  0.00  0.00     0.012 A 
ENDBRANCH  14  15
ENDBRANCH  11  13
ENDBRANCH   1  11
BRANCH   8  22
ATOM     22  O3  <0> d          29.574  69.661 -25.705  0.00  0.00    -0.356 OA
ATOM     23  H12 <0> d          29.841  70.555 -25.962  0.00  0.00     0.218 HD
ENDBRANCH   8  22
TORSDOF 4
ENDMDL
MODEL 2
REMARK VINA RESULT:      -7.0      4.810      6.693
REMARK  4 active torsions:
REMARK  status: ('A' for Active; 'I' for Inactive)
REMARK    1  A    between atoms: C7_7  and  C8_8 
REMARK    2  A    between atoms: C9_9  and  C10_10 
REMARK    3  A    between atoms: C10_10  and  C11_12 
REMARK    4  A    between atoms: C17_19  and  O3_20 
ROOT
ATOM      1  C11 <0> d          26.066  69.757 -24.945  0.00  0.00     0.052 A 
ATOM      2  C12 <0> d          24.973  69.192 -25.620  0.00  0.00     0.037 A 
ATOM      3  C13 <0> d          24.728  69.123 -26.974  0.00  0.00     0.013 A 
ATOM      4  C14 <0> d          25.497  69.583 -28.039  0.00  0.00     0.042 A 
ATOM      5  C15 <0> d          26.711  70.235 -28.021  0.00  0.00     0.065 A 
ATOM      6  C16 <0> d          27.488  70.606 -26.907  0.00  0.00     0.223 A 
ATOM      7  O2  <0> d          28.539  71.182 -27.150  0.00  0.00    -0.284 OA
ATOM      8  C17 <0> d          27.187  70.384 -25.491  0.00  0.00     0.131 A 
ATOM      9 Br1  <0> d          27.425  70.693 -29.711  0.00  0.00    -0.047 Br
ATOM     10 Br2  <0> d          23.110  68.273 -27.456  0.00  0.00    -0.051 Br
ENDROOT
BRANCH   1  11
ATOM     11  C10 <0> d          26.028  69.672 -23.469  0.00  0.00     0.185 C 
ATOM     12  O1  <0> d          27.056  69.499 -22.841  0.00  0.00    -0.287 OA
BRANCH  11  13
ATOM     13  C9  <0> d          24.754  69.798 -22.762  0.00  0.00     0.056 C 
ATOM     14  C8  <0> d          24.511  69.045 -21.666  0.00  0.00     0.016 C 
BRANCH  14  15
ATOM     15  C7  <0> d          23.231  69.172 -20.955  0.00  0.00    -0.030 A 
ATOM     16  C2  <0> d          23.082  68.636 -19.672  0.00  0.00    -0.052 A 
ATOM     17  C1  <0> d          24.236  67.926 -19.012  0.00  0.00     0.049 C 
ATOM     18  C3  <0> d          21.878  68.759 -19.012  0.00  0.00     0.007 A 
ATOM     19  C4  <0> d          20.817  69.410 -19.617  0.00  0.00     0.001 A 
ATOM     20  C5  <0> d          20.955  69.943 -20.888  0.00  0.00     0.001 A 
ATOM     21  C6  <0> d          22.153  69.829 -21.560  0.00  0.00     0.012 A 
ENDBRANCH  14  15
ENDBRANCH  11  13
ENDBRANCH   1  11
BRANCH   8  22
ATOM     22  O3  <0> d          28.104  70.839 -24.608  0.00  0.00    -0.356 OA
ATOM     23  H12 <0> d          27.750  71.006 -23.724  0.00  0.00     0.218 HD
ENDBRANCH   8  22
TORSDOF 4
ENDMDL
MODEL 3
REMARK VINA RESULT:      -6.9      3.797      7.176
REMARK  4 active torsions:
REMARK  status: ('A' for Active; 'I' for Inactive)
REMARK    1  A    between atoms: C7_7  and  C8_8 
REMARK    2  A    between atoms: C9_9  and  C10_10 
REMARK    3  A    between atoms: C10_10  and  C11_12 
REMARK    4  A    between atoms: C17_19  and  O3_20 
ROOT
ATOM      1  C11 <0> d          30.676  70.954 -20.542  0.00  0.00     0.052 A 
ATOM      2  C12 <0> d          30.437  72.091 -19.756  0.00  0.00     0.037 A 
ATOM      3  C13 <0> d          31.067  73.315 -19.783  0.00  0.00     0.013 A 
ATOM      4  C14 <0> d          32.104  73.761 -20.599  0.00  0.00     0.042 A 
ATOM      5  C15 <0> d          32.778  73.092 -21.598  0.00  0.00     0.065 A 
ATOM      6  C16 <0> d          32.586  71.772 -22.049  0.00  0.00     0.223 A 
ATOM      7  O2  <0> d          33.317  71.403 -22.957  0.00  0.00    -0.284 OA
ATOM      8  C17 <0> d          31.617  70.790 -21.560  0.00  0.00     0.131 A 
ATOM      9 Br1  <0> d          34.136  74.073 -22.474  0.00  0.00    -0.047 Br
ATOM     10 Br2  <0> d          30.428  74.578 -18.530  0.00  0.00    -0.051 Br
ENDROOT
BRANCH   1  11
ATOM     11  C10 <0> d          29.820  69.781 -20.259  0.00  0.00     0.185 C 
ATOM     12  O1  <0> d          30.319  68.742 -19.867  0.00  0.00    -0.287 OA
BRANCH  11  13
ATOM     13  C9  <0> d          28.373  69.869 -20.450  0.00  0.00     0.056 C 
ATOM     14  C8  <0> d          27.740  68.975 -21.242  0.00  0.00     0.016 C 
BRANCH  14  15
ATOM     15  C7  <0> d          26.285  69.064 -21.434  0.00  0.00    -0.030 A 
ATOM     16  C2  <0> d          25.759  69.380 -22.692  0.00  0.00    -0.052 A 
ATOM     17  C1  <0> d          26.684  69.630 -23.856  0.00  0.00     0.049 C 
ATOM     18  C3  <0> d          24.394  69.461 -22.864  0.00  0.00     0.007 A 
ATOM     19  C4  <0> d          23.543  69.233 -21.796  0.00  0.00     0.001 A 
ATOM     20  C5  <0> d          24.056  68.920 -20.548  0.00  0.00     0.001 A 
ATOM     21  C6  <0> d          25.419  68.835 -20.359  0.00  0.00     0.012 A 
ENDBRANCH  14  15
ENDBRANCH  11  13
ENDBRANCH   1  11
BRANCH   8  22
ATOM     22  O3  <0> d          31.635  69.582 -22.167  0.00  0.00    -0.356 OA
ATOM     23  H12 <0> d          32.089  68.894 -21.660  0.00  0.00     0.218 HD
ENDBRANCH   8  22
TORSDOF 4
ENDMDL
MODEL 4
REMARK VINA RESULT:      -6.8      3.817      5.651
REMARK  4 active torsions:
REMARK  status: ('A' for Active; 'I' for Inactive)
REMARK    1  A    between atoms: C7_7  and  C8_8 
REMARK    2  A    between atoms: C9_9  and  C10_10 
REMARK    3  A    between atoms: C10_10  and  C11_12 
REMARK    4  A    between atoms: C17_19  and  O3_20 
ROOT
ATOM      1  C11 <0> d          28.236  70.338 -24.428  0.00  0.00     0.052 A 
ATOM      2  C12 <0> d          28.933  69.127 -24.555  0.00  0.00     0.037 A 
ATOM      3  C13 <0> d          29.098  68.331 -25.667  0.00  0.00     0.013 A 
ATOM      4  C14 <0> d          28.630  68.513 -26.965  0.00  0.00     0.042 A 
ATOM      5  C15 <0> d          27.872  69.541 -27.483  0.00  0.00     0.065 A 
ATOM      6  C16 <0> d          27.372  70.679 -26.821  0.00  0.00     0.223 A 
ATOM      7  O2  <0> d          26.718  71.455 -27.503  0.00  0.00    -0.284 OA
ATOM      8  C17 <0> d          27.542  71.043 -25.413  0.00  0.00     0.131 A 
ATOM      9 Br1  <0> d          27.445  69.404 -29.320  0.00  0.00    -0.047 Br
ATOM     10 Br2  <0> d          30.115  66.762 -25.389  0.00  0.00    -0.051 Br
ENDROOT
BRANCH   1  11
ATOM     11  C10 <0> d          28.242  70.949 -23.080  0.00  0.00     0.185 C 
ATOM     12  O1  <0> d          28.692  72.069 -22.921  0.00  0.00    -0.287 OA
BRANCH  11  13
ATOM     13  C9  <0> d          27.707  70.208 -21.939  0.00  0.00     0.056 C 
ATOM     14  C8  <0> d          26.500  69.607 -22.030  0.00  0.00     0.016 C 
BRANCH  14  15
ATOM     15  C7  <0> d          25.962  68.862 -20.882  0.00  0.00    -0.030 A 
ATOM     16  C2  <0> d          24.598  68.930 -20.577  0.00  0.00    -0.052 A 
ATOM     17  C1  <0> d          23.674  69.767 -21.424  0.00  0.00     0.049 C 
ATOM     18  C3  <0> d          24.101  68.228 -19.499  0.00  0.00     0.007 A 
ATOM     19  C4  <0> d          24.947  67.459 -18.719  0.00  0.00     0.001 A 
ATOM     20  C5  <0> d          26.299  67.388 -19.015  0.00  0.00     0.001 A 
ATOM     21  C6  <0> d          26.811  68.083 -20.089  0.00  0.00     0.012 A 
ENDBRANCH  14  15
ENDBRANCH  11  13
ENDBRANCH   1  11
BRANCH   8  22
ATOM     22  O3  <0> d          26.958  72.197 -25.021  0.00  0.00    -0.356 OA
ATOM     23  H12 <0> d          27.583  72.915 -24.846  0.00  0.00     0.218 HD
ENDBRANCH   8  22
TORSDOF 4
ENDMDL
MODEL 5
REMARK VINA RESULT:      -6.7      3.515      5.169
REMARK  4 active torsions:
REMARK  status: ('A' for Active; 'I' for Inactive)
REMARK    1  A    between atoms: C7_7  and  C8_8 
REMARK    2  A    between atoms: C9_9  and  C10_10 
REMARK    3  A    between atoms: C10_10  and  C11_12 
REMARK    4  A    between atoms: C17_19  and  O3_20 
ROOT
ATOM      1  C11 <0> d          25.493  70.470 -25.151  0.00  0.00     0.052 A 
ATOM      2  C12 <0> d          24.516  69.677 -25.772  0.00  0.00     0.037 A 
ATOM      3  C13 <0> d          24.510  69.139 -27.039  0.00  0.00     0.013 A 
ATOM      4  C14 <0> d          25.468  69.226 -28.045  0.00  0.00     0.042 A 
ATOM      5  C15 <0> d          26.682  69.879 -28.039  0.00  0.00     0.065 A 
ATOM      6  C16 <0> d          27.265  70.632 -27.002  0.00  0.00     0.223 A 
ATOM      7  O2  <0> d          28.361  71.119 -27.240  0.00  0.00    -0.284 OA
ATOM      8  C17 <0> d          26.714  70.903 -25.673  0.00  0.00     0.131 A 
ATOM      9 Br1  <0> d          27.696  69.747 -29.630  0.00  0.00    -0.047 Br
ATOM     10 Br2  <0> d          22.973  68.129 -27.477  0.00  0.00    -0.051 Br
ENDROOT
BRANCH   1  11
ATOM     11  C10 <0> d          25.195  70.899 -23.767  0.00  0.00     0.185 C 
ATOM     12  O1  <0> d          24.842  72.043 -23.545  0.00  0.00    -0.287 OA
BRANCH  11  13
ATOM     13  C9  <0> d          25.321  69.947 -22.664  0.00  0.00     0.056 C 
ATOM     14  C8  <0> d          26.326  70.080 -21.769  0.00  0.00     0.016 C 
BRANCH  14  15
ATOM     15  C7  <0> d          26.453  69.123 -20.660  0.00  0.00    -0.030 A 
ATOM     16  C2  <0> d          27.611  69.105 -19.876  0.00  0.00    -0.052 A 
ATOM     17  C1  <0> d          28.735  70.068 -20.165  0.00  0.00     0.049 C 
ATOM     18  C3  <0> d          27.724  68.205 -18.837  0.00  0.00     0.007 A 
ATOM     19  C4  <0> d          26.694  67.319 -18.571  0.00  0.00     0.001 A 
ATOM     20  C5  <0> d          25.544  67.330 -19.343  0.00  0.00     0.001 A 
ATOM     21  C6  <0> d          25.417  68.224 -20.384  0.00  0.00     0.012 A 
ENDBRANCH  14  15
ENDBRANCH  11  13
ENDBRANCH   1  11
BRANCH   8  22
ATOM     22  O3  <0> d          27.478  71.660 -24.854  0.00  0.00    -0.356 OA
ATOM     23  H12 <0> d          28.384  71.338 -24.751  0.00  0.00     0.218 HD
ENDBRANCH   8  22
TORSDOF 4
ENDMDL
MODEL 6
REMARK VINA RESULT:      -6.5     19.865     21.190
REMARK  4 active torsions:
REMARK  status: ('A' for Active; 'I' for Inactive)
REMARK    1  A    between atoms: C7_7  and  C8_8 
REMARK    2  A    between atoms: C9_9  and  C10_10 
REMARK    3  A    between atoms: C10_10  and  C11_12 
REMARK    4  A    between atoms: C17_19  and  O3_20 
ROOT
ATOM      1  C11 <0> d          27.786  57.725  -7.390  0.00  0.00     0.052 A 
ATOM      2  C12 <0> d          29.127  57.312  -7.364  0.00  0.00     0.037 A 
ATOM      3  C13 <0> d          29.684  56.209  -6.757  0.00  0.00     0.013 A 
ATOM      4  C14 <0> d          29.074  55.201  -6.014  0.00  0.00     0.042 A 
ATOM      5  C15 <0> d          27.745  55.042  -5.687  0.00  0.00     0.065 A 
ATOM      6  C16 <0> d          26.656  55.869  -6.024  0.00  0.00     0.223 A 
ATOM      7  O2  <0> d          25.562  55.513  -5.611  0.00  0.00    -0.284 OA
ATOM      8  C17 <0> d          26.679  57.105  -6.808  0.00  0.00     0.131 A 
ATOM      9 Br1  <0> d          27.330  53.516  -4.650  0.00  0.00    -0.047 Br
ATOM     10 Br2  <0> d          31.555  56.034  -6.967  0.00  0.00    -0.051 Br
ENDROOT
BRANCH   1  11
ATOM     11  C10 <0> d          27.509  58.975  -8.133  0.00  0.00     0.185 C 
ATOM     12  O1  <0> d          26.917  58.933  -9.196  0.00  0.00    -0.287 OA
BRANCH  11  13
ATOM     13  C9  <0> d          27.947  60.260  -7.591  0.00  0.00     0.056 C 
ATOM     14  C8  <0> d          27.768  60.537  -6.280  0.00  0.00     0.016 C 
BRANCH  14  15
ATOM     15  C7  <0> d          28.208  61.829  -5.735  0.00  0.00    -0.030 A 
ATOM     16  C2  <0> d          29.186  61.874  -4.736  0.00  0.00    -0.052 A 
ATOM     17  C1  <0> d          29.794  60.597  -4.215  0.00  0.00     0.049 C 
ATOM     18  C3  <0> d          29.594  63.091  -4.229  0.00  0.00     0.007 A 
ATOM     19  C4  <0> d          29.036  64.264  -4.706  0.00  0.00     0.001 A 
ATOM     20  C5  <0> d          28.067  64.228  -5.694  0.00  0.00     0.001 A 
ATOM     21  C6  <0> d          27.649  63.020  -6.211  0.00  0.00     0.012 A 
ENDBRANCH  14  15
ENDBRANCH  11  13
ENDBRANCH   1  11
BRANCH   8  22
ATOM     22  O3  <0> d          25.488  57.717  -6.991  0.00  0.00    -0.356 OA
ATOM     23  H12 <0> d          24.991  57.864  -6.174  0.00  0.00     0.218 HD
ENDBRANCH   8  22
TORSDOF 4
ENDMDL
MODEL 7
REMARK VINA RESULT:      -6.3     20.942     22.136
REMARK  4 active torsions:
REMARK  status: ('A' for Active; 'I' for Inactive)
REMARK    1  A    between atoms: C7_7  and  C8_8 
REMARK    2  A    between atoms: C9_9  and  C10_10 
REMARK    3  A    between atoms: C10_10  and  C11_12 
REMARK    4  A    between atoms: C17_19  and  O3_20 
ROOT
ATOM      1  C11 <0> d          30.034  57.522  -6.951  0.00  0.00     0.052 A 
ATOM      2  C12 <0> d          29.487  58.809  -6.833  0.00  0.00     0.037 A 
ATOM      3  C13 <0> d          28.200  59.181  -6.512  0.00  0.00     0.013 A 
ATOM      4  C14 <0> d          27.097  58.387  -6.208  0.00  0.00     0.042 A 
ATOM      5  C15 <0> d          26.999  57.014  -6.151  0.00  0.00     0.065 A 
ATOM      6  C16 <0> d          28.003  56.055  -6.389  0.00  0.00     0.223 A 
ATOM      7  O2  <0> d          27.667  54.885  -6.276  0.00  0.00    -0.284 OA
ATOM      8  C17 <0> d          29.400  56.293  -6.758  0.00  0.00     0.131 A 
ATOM      9 Br1  <0> d          25.298  56.328  -5.695  0.00  0.00    -0.047 Br
ATOM     10 Br2  <0> d          27.888  61.045  -6.473  0.00  0.00    -0.051 Br
ENDROOT
BRANCH   1  11
ATOM     11  C10 <0> d          31.465  57.459  -7.320  0.00  0.00     0.185 C 
ATOM     12  O1  <0> d          31.809  56.869  -8.328  0.00  0.00    -0.287 OA
BRANCH  11  13
ATOM     13  C9  <0> d          32.468  58.107  -6.476  0.00  0.00     0.056 C 
ATOM     14  C8  <0> d          32.646  57.694  -5.201  0.00  0.00     0.016 C 
BRANCH  14  15
ATOM     15  C7  <0> d          33.654  58.346  -4.352  0.00  0.00    -0.030 A 
ATOM     16  C2  <0> d          34.750  57.618  -3.877  0.00  0.00    -0.052 A 
ATOM     17  C1  <0> d          34.903  56.162  -4.236  0.00  0.00     0.049 C 
ATOM     18  C3  <0> d          35.691  58.236  -3.081  0.00  0.00     0.007 A 
ATOM     19  C4  <0> d          35.553  59.573  -2.750  0.00  0.00     0.001 A 
ATOM     20  C5  <0> d          34.470  60.300  -3.215  0.00  0.00     0.001 A 
ATOM     21  C6  <0> d          33.520  59.697  -4.012  0.00  0.00     0.012 A 
ENDBRANCH  14  15
ENDBRANCH  11  13
ENDBRANCH   1  11
BRANCH   8  22
ATOM     22  O3  <0> d          30.166  55.193  -6.931  0.00  0.00    -0.356 OA
ATOM     23  H12 <0> d          29.794  54.389  -6.542  0.00  0.00     0.218 HD
ENDBRANCH   8  22
TORSDOF 4
ENDMDL
MODEL 8
REMARK VINA RESULT:      -6.2      3.901      8.154
REMARK  4 active torsions:
REMARK  status: ('A' for Active; 'I' for Inactive)
REMARK    1  A    between atoms: C7_7  and  C8_8 
REMARK    2  A    between atoms: C9_9  and  C10_10 
REMARK    3  A    between atoms: C10_10  and  C11_12 
REMARK    4  A    between atoms: C17_19  and  O3_20 
ROOT
ATOM      1  C11 <0> d          26.105  69.215 -26.262  0.00  0.00     0.052 A 
ATOM      2  C12 <0> d          25.313  69.294 -25.106  0.00  0.00     0.037 A 
ATOM      3  C13 <0> d          25.694  69.534 -23.805  0.00  0.00     0.013 A 
ATOM      4  C14 <0> d          26.962  69.773 -23.282  0.00  0.00     0.042 A 
ATOM      5  C15 <0> d          28.177  69.829 -23.930  0.00  0.00     0.065 A 
ATOM      6  C16 <0> d          28.445  69.656 -25.302  0.00  0.00     0.223 A 
ATOM      7  O2  <0> d          29.617  69.753 -25.638  0.00  0.00    -0.284 OA
ATOM      8  C17 <0> d          27.488  69.373 -26.373  0.00  0.00     0.131 A 
ATOM      9 Br1  <0> d          29.679  70.183 -22.837  0.00  0.00    -0.047 Br
ATOM     10 Br2  <0> d          24.287  69.546 -22.543  0.00  0.00    -0.051 Br
ENDROOT
BRANCH   1  11
ATOM     11  C10 <0> d          25.384  68.934 -27.523  0.00  0.00     0.185 C 
ATOM     12  O1  <0> d          25.728  68.002 -28.227  0.00  0.00    -0.287 OA
BRANCH  11  13
ATOM     13  C9  <0> d          24.256  69.775 -27.923  0.00  0.00     0.056 C 
ATOM     14  C8  <0> d          24.479  71.006 -28.434  0.00  0.00     0.016 C 
BRANCH  14  15
ATOM     15  C7  <0> d          23.346  71.851 -28.836  0.00  0.00    -0.030 A 
ATOM     16  C2  <0> d          23.040  73.008 -28.113  0.00  0.00    -0.052 A 
ATOM     17  C1  <0> d          23.872  73.394 -26.916  0.00  0.00     0.049 C 
ATOM     18  C3  <0> d          21.974  73.796 -28.496  0.00  0.00     0.007 A 
ATOM     19  C4  <0> d          21.209  73.443 -29.594  0.00  0.00     0.001 A 
ATOM     20  C5  <0> d          21.505  72.298 -30.315  0.00  0.00     0.001 A 
ATOM     21  C6  <0> d          22.566  71.501 -29.944  0.00  0.00     0.012 A 
ENDBRANCH  14  15
ENDBRANCH  11  13
ENDBRANCH   1  11
BRANCH   8  22
ATOM     22  O3  <0> d          28.004  69.251 -27.617  0.00  0.00    -0.356 OA
ATOM     23  H12 <0> d          27.751  69.964 -28.219  0.00  0.00     0.218 HD
ENDBRANCH   8  22
TORSDOF 4
ENDMDL
MODEL 9
REMARK VINA RESULT:      -6.2     16.641     18.430
REMARK  4 active torsions:
REMARK  status: ('A' for Active; 'I' for Inactive)
REMARK    1  A    between atoms: C7_7  and  C8_8 
REMARK    2  A    between atoms: C9_9  and  C10_10 
REMARK    3  A    between atoms: C10_10  and  C11_12 
REMARK    4  A    between atoms: C17_19  and  O3_20 
ROOT
ATOM      1  C11 <0> d          31.833  88.371 -21.628  0.00  0.00     0.052 A 
ATOM      2  C12 <0> d          33.106  88.937 -21.459  0.00  0.00     0.037 A 
ATOM      3  C13 <0> d          33.632  90.077 -22.023  0.00  0.00     0.013 A 
ATOM      4  C14 <0> d          33.047  90.983 -22.904  0.00  0.00     0.042 A 
ATOM      5  C15 <0> d          31.782  90.976 -23.449  0.00  0.00     0.065 A 
ATOM      6  C16 <0> d          30.750  90.039 -23.251  0.00  0.00     0.223 A 
ATOM      7  O2  <0> d          29.707  90.251 -23.853  0.00  0.00    -0.284 OA
ATOM      8  C17 <0> d          30.777  88.840 -22.411  0.00  0.00     0.131 A 
ATOM      9 Br1  <0> d          31.380  92.409 -24.616  0.00  0.00    -0.047 Br
ATOM     10 Br2  <0> d          35.412  90.475 -21.523  0.00  0.00    -0.051 Br
ENDROOT
BRANCH   1  11
ATOM     11  C10 <0> d          31.575  87.123 -20.877  0.00  0.00     0.185 C 
ATOM     12  O1  <0> d          31.237  86.114 -21.469  0.00  0.00    -0.287 OA
BRANCH  11  13
ATOM     13  C9  <0> d          31.728  87.100 -19.423  0.00  0.00     0.056 C 
ATOM     14  C8  <0> d          31.727  85.921 -18.762  0.00  0.00     0.016 C 
BRANCH  14  15
ATOM     15  C7  <0> d          31.880  85.897 -17.300  0.00  0.00    -0.030 A 
ATOM     16  C2  <0> d          30.799  85.544 -16.485  0.00  0.00    -0.052 A 
ATOM     17  C1  <0> d          29.472  85.184 -17.103  0.00  0.00     0.049 C 
ATOM     18  C3  <0> d          30.951  85.525 -15.114  0.00  0.00     0.007 A 
ATOM     19  C4  <0> d          32.168  85.855 -14.545  0.00  0.00     0.001 A 
ATOM     20  C5  <0> d          33.243  86.207 -15.344  0.00  0.00     0.001 A 
ATOM     21  C6  <0> d          33.107  86.231 -16.716  0.00  0.00     0.012 A 
ENDBRANCH  14  15
ENDBRANCH  11  13
ENDBRANCH   1  11
BRANCH   8  22
ATOM     22  O3  <0> d          29.646  88.100 -22.392  0.00  0.00    -0.356 OA
ATOM     23  H12 <0> d          29.793  87.152 -22.521  0.00  0.00     0.218 HD
ENDBRANCH   8  22
TORSDOF 4
ENDMDL
MODEL 10
REMARK VINA RESULT:      -6.2     23.725     25.091
REMARK  4 active torsions:
REMARK  status: ('A' for Active; 'I' for Inactive)
REMARK    1  A    between atoms: C7_7  and  C8_8 
REMARK    2  A    between atoms: C9_9  and  C10_10 
REMARK    3  A    between atoms: C10_10  and  C11_12 
REMARK    4  A    between atoms: C17_19  and  O3_20 
ROOT
ATOM      1  C11 <0> d          29.758  53.992  -5.710  0.00  0.00     0.052 A 
ATOM      2  C12 <0> d          30.835  54.812  -6.080  0.00  0.00     0.037 A 
ATOM      3  C13 <0> d          30.817  56.074  -6.631  0.00  0.00     0.013 A 
ATOM      4  C14 <0> d          29.733  56.883  -6.962  0.00  0.00     0.042 A 
ATOM      5  C15 <0> d          28.384  56.632  -6.828  0.00  0.00     0.065 A 
ATOM      6  C16 <0> d          27.756  55.479  -6.317  0.00  0.00     0.223 A 
ATOM      7  O2  <0> d          26.533  55.495  -6.302  0.00  0.00    -0.284 OA
ATOM      8  C17 <0> d          28.392  54.265  -5.803  0.00  0.00     0.131 A 
ATOM      9 Br1  <0> d          27.228  58.012  -7.406  0.00  0.00    -0.047 Br
ATOM     10 Br2  <0> d          32.517  56.821  -6.985  0.00  0.00    -0.051 Br
ENDROOT
BRANCH   1  11
ATOM     11  C10 <0> d          30.115  52.672  -5.144  0.00  0.00     0.185 C 
ATOM     12  O1  <0> d          29.876  52.424  -3.977  0.00  0.00    -0.287 OA
BRANCH  11  13
ATOM     13  C9  <0> d          30.755  51.664  -5.988  0.00  0.00     0.056 C 
ATOM     14  C8  <0> d          32.061  51.364  -5.811  0.00  0.00     0.016 C 
BRANCH  14  15
ATOM     15  C7  <0> d          32.704  50.350  -6.660  0.00  0.00    -0.030 A 
ATOM     16  C2  <0> d          33.956  50.603  -7.231  0.00  0.00    -0.052 A 
ATOM     17  C1  <0> d          34.652  51.916  -6.977  0.00  0.00     0.049 C 
ATOM     18  C3  <0> d          34.553  49.647  -8.026  0.00  0.00     0.007 A 
ATOM     19  C4  <0> d          33.916  48.441  -8.261  0.00  0.00     0.001 A 
ATOM     20  C5  <0> d          32.676  48.184  -7.700  0.00  0.00     0.001 A 
ATOM     21  C6  <0> d          32.066  49.129  -6.903  0.00  0.00     0.012 A 
ENDBRANCH  14  15
ENDBRANCH  11  13
ENDBRANCH   1  11
BRANCH   8  22
ATOM     22  O3  <0> d          27.558  53.294  -5.367  0.00  0.00    -0.356 OA
ATOM     23  H12 <0> d          27.022  52.893  -6.066  0.00  0.00     0.218 HD
ENDBRANCH   8  22
TORSDOF 4
ENDMDL
