MODEL 1
REMARK VINA RESULT:      -5.9      0.000      0.000
REMARK  8 active torsions:
REMARK  status: ('A' for Active; 'I' for Inactive)
REMARK    1  A    between atoms: C2_2  and  C3_3 
REMARK    2  A    between atoms: C3_3  and  C4_4 
REMARK    3  A    between atoms: C4_4  and  C5_5 
REMARK    4  A    between atoms: C5_5  and  C6_6 
REMARK    5  A    between atoms: C6_6  and  C7_7 
REMARK    6  A    between atoms: C7_7  and  N1_8 
REMARK    7  A    between atoms: C14_16  and  C15_17 
REMARK    8  A    between atoms: C15_17  and  O1_18 
ROOT
ATOM      1  N1  <0> d          27.878  69.199 -26.510  0.00  0.00    -0.331 N 
ATOM      2  C8  <0> d          28.847  68.862 -25.587  0.00  0.00     0.065 A 
ATOM      3  C9  <0> d          29.171  69.316 -24.315  0.00  0.00     0.032 A 
ATOM      4  C10 <0> d          30.232  68.752 -23.638  0.00  0.00     0.002 A 
ATOM      5  C11 <0> d          30.980  67.741 -24.221  0.00  0.00     0.002 A 
ATOM      6  C12 <0> d          30.673  67.277 -25.469  0.00  0.00     0.034 A 
ATOM      7  C13 <0> d          29.603  67.834 -26.174  0.00  0.00     0.085 A 
ATOM      8  N2  <0> d          29.067  67.600 -27.400  0.00  0.00    -0.231 NA
ATOM      9  C14 <0> d          28.059  68.399 -27.595  0.00  0.00     0.131 A 
ENDROOT
BRANCH   1  10
ATOM     10  C7  <0> d          26.847  70.227 -26.351  0.00  0.00     0.131 C 
BRANCH  10  11
ATOM     11  C6  <0> d          25.629  69.622 -25.651  0.00  0.00     0.020 C 
BRANCH  11  12
ATOM     12  C5  <0> d          25.584  70.103 -24.199  0.00  0.00     0.002 C 
BRANCH  12  13
ATOM     13  C4  <0> d          24.570  69.267 -23.416  0.00  0.00     0.000 C 
BRANCH  13  14
ATOM     14  C3  <0> d          24.949  69.263 -21.933  0.00  0.00    -0.000 C 
BRANCH  14  15
ATOM     15  C2  <0> d          26.413  69.682 -21.780  0.00  0.00    -0.005 C 
ATOM     16  C1  <0> d          27.197  68.554 -21.104  0.00  0.00     0.005 C 
ENDBRANCH  14  15
ENDBRANCH  13  14
ENDBRANCH  12  13
ENDBRANCH  11  12
ENDBRANCH  10  11
ENDBRANCH   1  10
BRANCH   9  17
ATOM     17  C15 <0> d          27.213  68.433 -28.843  0.00  0.00     0.242 C 
BRANCH  17  18
ATOM     18  O1  <0> d          26.146  67.492 -28.722  0.00  0.00    -0.393 OA
ATOM     19  H22 <0> d          25.593  67.622 -27.939  0.00  0.00     0.209 HD
ENDBRANCH  17  18
ENDBRANCH   9  17
TORSDOF 8
ENDMDL
MODEL 2
REMARK VINA RESULT:      -5.9      1.981      3.840
REMARK  8 active torsions:
REMARK  status: ('A' for Active; 'I' for Inactive)
REMARK    1  A    between atoms: C2_2  and  C3_3 
REMARK    2  A    between atoms: C3_3  and  C4_4 
REMARK    3  A    between atoms: C4_4  and  C5_5 
REMARK    4  A    between atoms: C5_5  and  C6_6 
REMARK    5  A    between atoms: C6_6  and  C7_7 
REMARK    6  A    between atoms: C7_7  and  N1_8 
REMARK    7  A    between atoms: C14_16  and  C15_17 
REMARK    8  A    between atoms: C15_17  and  O1_18 
ROOT
ATOM      1  N1  <0> d          29.270  68.679 -25.300  0.00  0.00    -0.331 N 
ATOM      2  C8  <0> d          28.527  69.039 -26.406  0.00  0.00     0.065 A 
ATOM      3  C9  <0> d          27.716  70.122 -26.715  0.00  0.00     0.032 A 
ATOM      4  C10 <0> d          27.097  70.182 -27.947  0.00  0.00     0.002 A 
ATOM      5  C11 <0> d          27.276  69.167 -28.874  0.00  0.00     0.002 A 
ATOM      6  C12 <0> d          28.076  68.096 -28.590  0.00  0.00     0.034 A 
ATOM      7  C13 <0> d          28.712  68.013 -27.349  0.00  0.00     0.085 A 
ATOM      8  N2  <0> d          29.541  67.100 -26.781  0.00  0.00    -0.231 NA
ATOM      9  C14 <0> d          29.866  67.489 -25.584  0.00  0.00     0.131 A 
ENDROOT
BRANCH   1  10
ATOM     10  C7  <0> d          29.393  69.436 -24.053  0.00  0.00     0.131 C 
BRANCH  10  11
ATOM     11  C6  <0> d          28.327  68.966 -23.063  0.00  0.00     0.020 C 
BRANCH  11  12
ATOM     12  C5  <0> d          27.088  69.855 -23.186  0.00  0.00     0.002 C 
BRANCH  12  13
ATOM     13  C4  <0> d          25.983  69.320 -22.274  0.00  0.00     0.000 C 
BRANCH  13  14
ATOM     14  C3  <0> d          24.663  69.270 -23.047  0.00  0.00    -0.000 C 
BRANCH  14  15
ATOM     15  C2  <0> d          24.949  69.317 -24.549  0.00  0.00    -0.005 C 
ATOM     16  C1  <0> d          23.977  70.288 -25.223  0.00  0.00     0.005 C 
ENDBRANCH  14  15
ENDBRANCH  13  14
ENDBRANCH  12  13
ENDBRANCH  11  12
ENDBRANCH  10  11
ENDBRANCH   1  10
BRANCH   9  17
ATOM     17  C15 <0> d          30.773  66.734 -24.646  0.00  0.00     0.242 C 
BRANCH  17  18
ATOM     18  O1  <0> d          32.063  66.590 -25.241  0.00  0.00    -0.393 OA
ATOM     19  H22 <0> d          32.707  67.250 -24.950  0.00  0.00     0.209 HD
ENDBRANCH  17  18
ENDBRANCH   9  17
TORSDOF 8
ENDMDL
MODEL 3
REMARK VINA RESULT:      -5.7      2.597      5.038
REMARK  8 active torsions:
REMARK  status: ('A' for Active; 'I' for Inactive)
REMARK    1  A    between atoms: C2_2  and  C3_3 
REMARK    2  A    between atoms: C3_3  and  C4_4 
REMARK    3  A    between atoms: C4_4  and  C5_5 
REMARK    4  A    between atoms: C5_5  and  C6_6 
REMARK    5  A    between atoms: C6_6  and  C7_7 
REMARK    6  A    between atoms: C7_7  and  N1_8 
REMARK    7  A    between atoms: C14_16  and  C15_17 
REMARK    8  A    between atoms: C15_17  and  O1_18 
ROOT
ATOM      1  N1  <0> d          28.896  68.306 -25.041  0.00  0.00    -0.331 N 
ATOM      2  C8  <0> d          28.188  68.771 -26.130  0.00  0.00     0.065 A 
ATOM      3  C9  <0> d          27.168  69.698 -26.296  0.00  0.00     0.032 A 
ATOM      4  C10 <0> d          26.663  69.940 -27.557  0.00  0.00     0.002 A 
ATOM      5  C11 <0> d          27.162  69.259 -28.657  0.00  0.00     0.002 A 
ATOM      6  C12 <0> d          28.170  68.348 -28.513  0.00  0.00     0.034 A 
ATOM      7  C13 <0> d          28.697  68.086 -27.246  0.00  0.00     0.085 A 
ATOM      8  N2  <0> d          29.670  67.256 -26.789  0.00  0.00    -0.231 NA
ATOM      9  C14 <0> d          29.785  67.385 -25.501  0.00  0.00     0.131 A 
ENDROOT
BRANCH   1  10
ATOM     10  C7  <0> d          28.722  68.726 -23.648  0.00  0.00     0.131 C 
BRANCH  10  11
ATOM     11  C6  <0> d          29.742  69.815 -23.314  0.00  0.00     0.020 C 
BRANCH  11  12
ATOM     12  C5  <0> d          30.017  69.812 -21.808  0.00  0.00     0.002 C 
BRANCH  12  13
ATOM     13  C4  <0> d          31.513  70.017 -21.562  0.00  0.00     0.000 C 
BRANCH  13  14
ATOM     14  C3  <0> d          32.314  69.137 -22.525  0.00  0.00    -0.000 C 
BRANCH  14  15
ATOM     15  C2  <0> d          33.502  69.931 -23.073  0.00  0.00    -0.005 C 
ATOM     16  C1  <0> d          33.492  71.340 -22.475  0.00  0.00     0.005 C 
ENDBRANCH  14  15
ENDBRANCH  13  14
ENDBRANCH  12  13
ENDBRANCH  11  12
ENDBRANCH  10  11
ENDBRANCH   1  10
BRANCH   9  17
ATOM     17  C15 <0> d          30.762  66.625 -24.640  0.00  0.00     0.242 C 
BRANCH  17  18
ATOM     18  O1  <0> d          32.046  66.620 -25.267  0.00  0.00    -0.393 OA
ATOM     19  H22 <0> d          32.261  65.790 -25.715  0.00  0.00     0.209 HD
ENDBRANCH  17  18
ENDBRANCH   9  17
TORSDOF 8
ENDMDL
MODEL 4
REMARK VINA RESULT:      -5.5     22.187     23.793
REMARK  8 active torsions:
REMARK  status: ('A' for Active; 'I' for Inactive)
REMARK    1  A    between atoms: C2_2  and  C3_3 
REMARK    2  A    between atoms: C3_3  and  C4_4 
REMARK    3  A    between atoms: C4_4  and  C5_5 
REMARK    4  A    between atoms: C5_5  and  C6_6 
REMARK    5  A    between atoms: C6_6  and  C7_7 
REMARK    6  A    between atoms: C7_7  and  N1_8 
REMARK    7  A    between atoms: C14_16  and  C15_17 
REMARK    8  A    between atoms: C15_17  and  O1_18 
ROOT
ATOM      1  N1  <0> d           8.747  53.017 -27.197  0.00  0.00    -0.331 N 
ATOM      2  C8  <0> d          10.059  52.684 -26.929  0.00  0.00     0.065 A 
ATOM      3  C9  <0> d          11.278  53.024 -27.501  0.00  0.00     0.032 A 
ATOM      4  C10 <0> d          12.445  52.504 -26.980  0.00  0.00     0.002 A 
ATOM      5  C11 <0> d          12.408  51.641 -25.895  0.00  0.00     0.002 A 
ATOM      6  C12 <0> d          11.217  51.300 -25.316  0.00  0.00     0.034 A 
ATOM      7  C13 <0> d          10.023  51.814 -25.827  0.00  0.00     0.085 A 
ATOM      8  N2  <0> d           8.717  51.664 -25.486  0.00  0.00    -0.231 NA
ATOM      9  C14 <0> d           7.972  52.367 -26.287  0.00  0.00     0.131 A 
ENDROOT
BRANCH   1  10
ATOM     10  C7  <0> d           8.276  53.904 -28.263  0.00  0.00     0.131 C 
BRANCH  10  11
ATOM     11  C6  <0> d           8.173  55.333 -27.728  0.00  0.00     0.020 C 
BRANCH  11  12
ATOM     12  C5  <0> d           9.077  56.253 -28.553  0.00  0.00     0.002 C 
BRANCH  12  13
ATOM     13  C4  <0> d          10.333  56.590 -27.748  0.00  0.00     0.000 C 
BRANCH  13  14
ATOM     14  C3  <0> d          11.357  57.268 -28.661  0.00  0.00    -0.000 C 
BRANCH  14  15
ATOM     15  C2  <0> d          12.429  56.254 -29.067  0.00  0.00    -0.005 C 
ATOM     16  C1  <0> d          13.410  56.912 -30.040  0.00  0.00     0.005 C 
ENDBRANCH  14  15
ENDBRANCH  13  14
ENDBRANCH  12  13
ENDBRANCH  11  12
ENDBRANCH  10  11
ENDBRANCH   1  10
BRANCH   9  17
ATOM     17  C15 <0> d           6.468  52.450 -26.218  0.00  0.00     0.242 C 
BRANCH  17  18
ATOM     18  O1  <0> d           6.047  52.355 -24.857  0.00  0.00    -0.393 OA
ATOM     19  H22 <0> d           5.087  52.360 -24.741  0.00  0.00     0.209 HD
ENDBRANCH  17  18
ENDBRANCH   9  17
TORSDOF 8
ENDMDL
MODEL 5
REMARK VINA RESULT:      -5.5      2.249      3.898
REMARK  8 active torsions:
REMARK  status: ('A' for Active; 'I' for Inactive)
REMARK    1  A    between atoms: C2_2  and  C3_3 
REMARK    2  A    between atoms: C3_3  and  C4_4 
REMARK    3  A    between atoms: C4_4  and  C5_5 
REMARK    4  A    between atoms: C5_5  and  C6_6 
REMARK    5  A    between atoms: C6_6  and  C7_7 
REMARK    6  A    between atoms: C7_7  and  N1_8 
REMARK    7  A    between atoms: C14_16  and  C15_17 
REMARK    8  A    between atoms: C15_17  and  O1_18 
ROOT
ATOM      1  N1  <0> d          29.186  68.732 -25.294  0.00  0.00    -0.331 N 
ATOM      2  C8  <0> d          28.439  68.988 -26.426  0.00  0.00     0.065 A 
ATOM      3  C9  <0> d          27.520  69.969 -26.777  0.00  0.00     0.032 A 
ATOM      4  C10 <0> d          26.934  69.940 -28.025  0.00  0.00     0.002 A 
ATOM      5  C11 <0> d          27.250  68.936 -28.928  0.00  0.00     0.002 A 
ATOM      6  C12 <0> d          28.157  67.967 -28.603  0.00  0.00     0.034 A 
ATOM      7  C13 <0> d          28.763  67.975 -27.344  0.00  0.00     0.085 A 
ATOM      8  N2  <0> d          29.673  67.170 -26.738  0.00  0.00    -0.231 NA
ATOM      9  C14 <0> d          29.919  67.612 -25.540  0.00  0.00     0.131 A 
ENDROOT
BRANCH   1  10
ATOM     10  C7  <0> d          29.189  69.518 -24.059  0.00  0.00     0.131 C 
BRANCH  10  11
ATOM     11  C6  <0> d          27.919  69.219 -23.261  0.00  0.00     0.020 C 
BRANCH  11  12
ATOM     12  C5  <0> d          28.299  68.719 -21.865  0.00  0.00     0.002 C 
BRANCH  12  13
ATOM     13  C4  <0> d          27.310  69.273 -20.839  0.00  0.00     0.000 C 
BRANCH  13  14
ATOM     14  C3  <0> d          27.386  68.441 -19.556  0.00  0.00    -0.000 C 
BRANCH  14  15
ATOM     15  C2  <0> d          26.254  67.413 -19.547  0.00  0.00    -0.005 C 
ATOM     16  C1  <0> d          24.911  68.133 -19.688  0.00  0.00     0.005 C 
ENDBRANCH  14  15
ENDBRANCH  13  14
ENDBRANCH  12  13
ENDBRANCH  11  12
ENDBRANCH  10  11
ENDBRANCH   1  10
BRANCH   9  17
ATOM     17  C15 <0> d          30.877  66.978 -24.564  0.00  0.00     0.242 C 
BRANCH  17  18
ATOM     18  O1  <0> d          32.075  66.605 -25.246  0.00  0.00    -0.393 OA
ATOM     19  H22 <0> d          32.211  65.650 -25.311  0.00  0.00     0.209 HD
ENDBRANCH  17  18
ENDBRANCH   9  17
TORSDOF 8
ENDMDL
MODEL 6
REMARK VINA RESULT:      -5.3      2.993      4.866
REMARK  8 active torsions:
REMARK  status: ('A' for Active; 'I' for Inactive)
REMARK    1  A    between atoms: C2_2  and  C3_3 
REMARK    2  A    between atoms: C3_3  and  C4_4 
REMARK    3  A    between atoms: C4_4  and  C5_5 
REMARK    4  A    between atoms: C5_5  and  C6_6 
REMARK    5  A    between atoms: C6_6  and  C7_7 
REMARK    6  A    between atoms: C7_7  and  N1_8 
REMARK    7  A    between atoms: C14_16  and  C15_17 
REMARK    8  A    between atoms: C15_17  and  O1_18 
ROOT
ATOM      1  N1  <0> d          29.780  68.923 -23.918  0.00  0.00    -0.331 N 
ATOM      2  C8  <0> d          30.101  69.902 -22.999  0.00  0.00     0.065 A 
ATOM      3  C9  <0> d          29.412  70.976 -22.451  0.00  0.00     0.032 A 
ATOM      4  C10 <0> d          30.039  71.790 -21.530  0.00  0.00     0.002 A 
ATOM      5  C11 <0> d          31.352  71.547 -21.155  0.00  0.00     0.002 A 
ATOM      6  C12 <0> d          32.043  70.492 -21.680  0.00  0.00     0.034 A 
ATOM      7  C13 <0> d          31.429  69.654 -22.615  0.00  0.00     0.085 A 
ATOM      8  N2  <0> d          31.841  68.558 -23.303  0.00  0.00    -0.231 NA
ATOM      9  C14 <0> d          30.877  68.132 -24.065  0.00  0.00     0.131 A 
ENDROOT
BRANCH   1  10
ATOM     10  C7  <0> d          28.497  68.765 -24.606  0.00  0.00     0.131 C 
BRANCH  10  11
ATOM     11  C6  <0> d          28.477  69.645 -25.857  0.00  0.00     0.020 C 
BRANCH  11  12
ATOM     12  C5  <0> d          28.287  68.766 -27.096  0.00  0.00     0.002 C 
BRANCH  12  13
ATOM     13  C4  <0> d          27.356  69.471 -28.083  0.00  0.00     0.000 C 
BRANCH  13  14
ATOM     14  C3  <0> d          26.043  68.693 -28.191  0.00  0.00    -0.000 C 
BRANCH  14  15
ATOM     15  C2  <0> d          24.879  69.596 -27.776  0.00  0.00    -0.005 C 
ATOM     16  C1  <0> d          23.866  68.782 -26.968  0.00  0.00     0.005 C 
ENDBRANCH  14  15
ENDBRANCH  13  14
ENDBRANCH  12  13
ENDBRANCH  11  12
ENDBRANCH  10  11
ENDBRANCH   1  10
BRANCH   9  17
ATOM     17  C15 <0> d          30.961  66.935 -24.977  0.00  0.00     0.242 C 
BRANCH  17  18
ATOM     18  O1  <0> d          32.329  66.565 -25.153  0.00  0.00    -0.393 OA
ATOM     19  H22 <0> d          32.456  65.647 -25.431  0.00  0.00     0.209 HD
ENDBRANCH  17  18
ENDBRANCH   9  17
TORSDOF 8
ENDMDL
MODEL 7
REMARK VINA RESULT:      -5.2      2.451      4.295
REMARK  8 active torsions:
REMARK  status: ('A' for Active; 'I' for Inactive)
REMARK    1  A    between atoms: C2_2  and  C3_3 
REMARK    2  A    between atoms: C3_3  and  C4_4 
REMARK    3  A    between atoms: C4_4  and  C5_5 
REMARK    4  A    between atoms: C5_5  and  C6_6 
REMARK    5  A    between atoms: C6_6  and  C7_7 
REMARK    6  A    between atoms: C7_7  and  N1_8 
REMARK    7  A    between atoms: C14_16  and  C15_17 
REMARK    8  A    between atoms: C15_17  and  O1_18 
ROOT
ATOM      1  N1  <0> d          30.025  68.480 -23.821  0.00  0.00    -0.331 N 
ATOM      2  C8  <0> d          31.034  69.225 -23.246  0.00  0.00     0.065 A 
ATOM      3  C9  <0> d          31.061  70.327 -22.402  0.00  0.00     0.032 A 
ATOM      4  C10 <0> d          32.273  70.849 -21.998  0.00  0.00     0.002 A 
ATOM      5  C11 <0> d          33.462  70.285 -22.436  0.00  0.00     0.002 A 
ATOM      6  C12 <0> d          33.454  69.197 -23.263  0.00  0.00     0.034 A 
ATOM      7  C13 <0> d          32.239  68.652 -23.685  0.00  0.00     0.085 A 
ATOM      8  N2  <0> d          31.910  67.607 -24.487  0.00  0.00    -0.231 NA
ATOM      9  C14 <0> d          30.616  67.507 -24.567  0.00  0.00     0.131 A 
ENDROOT
BRANCH   1  10
ATOM     10  C7  <0> d          28.585  68.695 -23.659  0.00  0.00     0.131 C 
BRANCH  10  11
ATOM     11  C6  <0> d          28.137  69.846 -24.561  0.00  0.00     0.020 C 
BRANCH  11  12
ATOM     12  C5  <0> d          26.793  69.496 -25.204  0.00  0.00     0.002 C 
BRANCH  12  13
ATOM     13  C4  <0> d          26.973  69.352 -26.716  0.00  0.00     0.000 C 
BRANCH  13  14
ATOM     14  C3  <0> d          27.545  70.651 -27.288  0.00  0.00    -0.000 C 
BRANCH  14  15
ATOM     15  C2  <0> d          26.399  71.548 -27.763  0.00  0.00    -0.005 C 
ATOM     16  C1  <0> d          26.511  72.917 -27.089  0.00  0.00     0.005 C 
ENDBRANCH  14  15
ENDBRANCH  13  14
ENDBRANCH  12  13
ENDBRANCH  11  12
ENDBRANCH  10  11
ENDBRANCH   1  10
BRANCH   9  17
ATOM     17  C15 <0> d          29.877  66.466 -25.368  0.00  0.00     0.242 C 
BRANCH  17  18
ATOM     18  O1  <0> d          29.548  66.997 -26.652  0.00  0.00    -0.393 OA
ATOM     19  H22 <0> d          30.185  67.644 -26.985  0.00  0.00     0.209 HD
ENDBRANCH  17  18
ENDBRANCH   9  17
TORSDOF 8
ENDMDL
MODEL 8
REMARK VINA RESULT:      -5.1     22.635     24.239
REMARK  8 active torsions:
REMARK  status: ('A' for Active; 'I' for Inactive)
REMARK    1  A    between atoms: C2_2  and  C3_3 
REMARK    2  A    between atoms: C3_3  and  C4_4 
REMARK    3  A    between atoms: C4_4  and  C5_5 
REMARK    4  A    between atoms: C5_5  and  C6_6 
REMARK    5  A    between atoms: C6_6  and  C7_7 
REMARK    6  A    between atoms: C7_7  and  N1_8 
REMARK    7  A    between atoms: C14_16  and  C15_17 
REMARK    8  A    between atoms: C15_17  and  O1_18 
ROOT
ATOM      1  N1  <0> d          10.130  53.111 -27.536  0.00  0.00    -0.331 N 
ATOM      2  C8  <0> d          10.672  54.320 -27.922  0.00  0.00     0.065 A 
ATOM      3  C9  <0> d          11.916  54.714 -28.395  0.00  0.00     0.032 A 
ATOM      4  C10 <0> d          12.142  56.041 -28.698  0.00  0.00     0.002 A 
ATOM      5  C11 <0> d          11.138  56.982 -28.528  0.00  0.00     0.002 A 
ATOM      6  C12 <0> d           9.905  56.611 -28.069  0.00  0.00     0.034 A 
ATOM      7  C13 <0> d           9.653  55.273 -27.755  0.00  0.00     0.085 A 
ATOM      8  N2  <0> d           8.565  54.610 -27.286  0.00  0.00    -0.231 NA
ATOM      9  C14 <0> d           8.844  53.347 -27.158  0.00  0.00     0.131 A 
ENDROOT
BRANCH   1  10
ATOM     10  C7  <0> d          10.812  51.814 -27.534  0.00  0.00     0.131 C 
BRANCH  10  11
ATOM     11  C6  <0> d          11.737  51.727 -26.319  0.00  0.00     0.020 C 
BRANCH  11  12
ATOM     12  C5  <0> d          11.036  50.956 -25.198  0.00  0.00     0.002 C 
BRANCH  12  13
ATOM     13  C4  <0> d          10.648  49.565 -25.701  0.00  0.00     0.000 C 
BRANCH  13  14
ATOM     14  C3  <0> d          11.913  48.741 -25.950  0.00  0.00    -0.000 C 
BRANCH  14  15
ATOM     15  C2  <0> d          11.580  47.559 -26.863  0.00  0.00    -0.005 C 
ATOM     16  C1  <0> d          10.437  47.948 -27.804  0.00  0.00     0.005 C 
ENDBRANCH  14  15
ENDBRANCH  13  14
ENDBRANCH  12  13
ENDBRANCH  11  12
ENDBRANCH  10  11
ENDBRANCH   1  10
BRANCH   9  17
ATOM     17  C15 <0> d           7.884  52.295 -26.663  0.00  0.00     0.242 C 
BRANCH  17  18
ATOM     18  O1  <0> d           7.693  52.448 -25.256  0.00  0.00    -0.393 OA
ATOM     19  H22 <0> d           8.496  52.320 -24.733  0.00  0.00     0.209 HD
ENDBRANCH  17  18
ENDBRANCH   9  17
TORSDOF 8
ENDMDL
MODEL 9
REMARK VINA RESULT:      -5.1     20.116     21.171
REMARK  8 active torsions:
REMARK  status: ('A' for Active; 'I' for Inactive)
REMARK    1  A    between atoms: C2_2  and  C3_3 
REMARK    2  A    between atoms: C3_3  and  C4_4 
REMARK    3  A    between atoms: C4_4  and  C5_5 
REMARK    4  A    between atoms: C5_5  and  C6_6 
REMARK    5  A    between atoms: C6_6  and  C7_7 
REMARK    6  A    between atoms: C7_7  and  N1_8 
REMARK    7  A    between atoms: C14_16  and  C15_17 
REMARK    8  A    between atoms: C15_17  and  O1_18 
ROOT
ATOM      1  N1  <0> d          31.290  88.307 -20.535  0.00  0.00    -0.331 N 
ATOM      2  C8  <0> d          31.819  88.013 -19.294  0.00  0.00     0.065 A 
ATOM      3  C9  <0> d          32.179  88.776 -18.192  0.00  0.00     0.032 A 
ATOM      4  C10 <0> d          32.694  88.157 -17.072  0.00  0.00     0.002 A 
ATOM      5  C11 <0> d          32.862  86.781 -17.043  0.00  0.00     0.002 A 
ATOM      6  C12 <0> d          32.507  86.013 -18.117  0.00  0.00     0.034 A 
ATOM      7  C13 <0> d          31.983  86.619 -19.262  0.00  0.00     0.085 A 
ATOM      8  N2  <0> d          31.555  86.142 -20.460  0.00  0.00    -0.231 NA
ATOM      9  C14 <0> d          31.150  87.130 -21.203  0.00  0.00     0.131 A 
ENDROOT
BRANCH   1  10
ATOM     10  C7  <0> d          30.944  89.638 -21.039  0.00  0.00     0.131 C 
BRANCH  10  11
ATOM     11  C6  <0> d          32.225  90.417 -21.342  0.00  0.00     0.020 C 
BRANCH  11  12
ATOM     12  C5  <0> d          32.781  89.976 -22.698  0.00  0.00     0.002 C 
BRANCH  12  13
ATOM     13  C4  <0> d          34.223  89.495 -22.525  0.00  0.00     0.000 C 
BRANCH  13  14
ATOM     14  C3  <0> d          34.783  90.024 -21.203  0.00  0.00    -0.000 C 
BRANCH  14  15
ATOM     15  C2  <0> d          35.939  90.986 -21.486  0.00  0.00    -0.005 C 
ATOM     16  C1  <0> d          35.476  92.424 -21.244  0.00  0.00     0.005 C 
ENDBRANCH  14  15
ENDBRANCH  13  14
ENDBRANCH  12  13
ENDBRANCH  11  12
ENDBRANCH  10  11
ENDBRANCH   1  10
BRANCH   9  17
ATOM     17  C15 <0> d          30.605  86.991 -22.602  0.00  0.00     0.242 C 
BRANCH  17  18
ATOM     18  O1  <0> d          30.714  85.632 -23.024  0.00  0.00    -0.393 OA
ATOM     19  H22 <0> d          30.240  85.005 -22.460  0.00  0.00     0.209 HD
ENDBRANCH  17  18
ENDBRANCH   9  17
TORSDOF 8
ENDMDL
MODEL 10
REMARK VINA RESULT:      -5.0     22.175     23.829
REMARK  8 active torsions:
REMARK  status: ('A' for Active; 'I' for Inactive)
REMARK    1  A    between atoms: C2_2  and  C3_3 
REMARK    2  A    between atoms: C3_3  and  C4_4 
REMARK    3  A    between atoms: C4_4  and  C5_5 
REMARK    4  A    between atoms: C5_5  and  C6_6 
REMARK    5  A    between atoms: C6_6  and  C7_7 
REMARK    6  A    between atoms: C7_7  and  N1_8 
REMARK    7  A    between atoms: C14_16  and  C15_17 
REMARK    8  A    between atoms: C15_17  and  O1_18 
ROOT
ATOM      1  N1  <0> d           8.925  53.380 -27.007  0.00  0.00    -0.331 N 
ATOM      2  C8  <0> d          10.144  52.759 -26.825  0.00  0.00     0.065 A 
ATOM      3  C9  <0> d          11.385  52.867 -27.438  0.00  0.00     0.032 A 
ATOM      4  C10 <0> d          12.431  52.077 -27.006  0.00  0.00     0.002 A 
ATOM      5  C11 <0> d          12.249  51.174 -25.970  0.00  0.00     0.002 A 
ATOM      6  C12 <0> d          11.036  51.058 -25.351  0.00  0.00     0.034 A 
ATOM      7  C13 <0> d           9.962  51.848 -25.772  0.00  0.00     0.085 A 
ATOM      8  N2  <0> d           8.669  51.958 -25.373  0.00  0.00    -0.231 NA
ATOM      9  C14 <0> d           8.063  52.853 -26.096  0.00  0.00     0.131 A 
ENDROOT
BRANCH   1  10
ATOM     10  C7  <0> d           8.617  54.415 -27.997  0.00  0.00     0.131 C 
BRANCH  10  11
ATOM     11  C6  <0> d           9.457  55.660 -27.711  0.00  0.00     0.020 C 
BRANCH  11  12
ATOM     12  C5  <0> d           9.058  56.778 -28.677  0.00  0.00     0.002 C 
BRANCH  12  13
ATOM     13  C4  <0> d          10.024  57.954 -28.525  0.00  0.00     0.000 C 
BRANCH  13  14
ATOM     14  C3  <0> d           9.385  59.218 -29.105  0.00  0.00    -0.000 C 
BRANCH  14  15
ATOM     15  C2  <0> d           7.930  59.313 -28.641  0.00  0.00    -0.005 C 
ATOM     16  C1  <0> d           7.715  60.640 -27.909  0.00  0.00     0.005 C 
ENDBRANCH  14  15
ENDBRANCH  13  14
ENDBRANCH  12  13
ENDBRANCH  11  12
ENDBRANCH  10  11
ENDBRANCH   1  10
BRANCH   9  17
ATOM     17  C15 <0> d           6.617  53.251 -25.947  0.00  0.00     0.242 C 
BRANCH  17  18
ATOM     18  O1  <0> d           6.008  52.460 -24.925  0.00  0.00    -0.393 OA
ATOM     19  H22 <0> d           5.232  51.964 -25.221  0.00  0.00     0.209 HD
ENDBRANCH  17  18
ENDBRANCH   9  17
TORSDOF 8
ENDMDL
