MODEL 1
REMARK VINA RESULT:      -5.9      0.000      0.000
REMARK  0 active torsions:
REMARK  status: ('A' for Active; 'I' for Inactive)
ROOT
ATOM      1  C1  <0> d          13.112  50.447 -27.142  0.00  0.00     0.042 C 
ATOM      2  C2  <0> d          12.366  49.475 -28.039  0.00  0.00     0.036 A 
ATOM      3  C3  <0> d          11.119  48.697 -27.478  0.00  0.00     0.036 A 
ATOM      4  C4  <0> d          12.440  47.975 -27.801  0.00  0.00     0.122 A 
ATOM      5 Cl1  <0> d          12.465  46.907 -29.253  0.00  0.00    -0.101 Cl
ATOM      6 Cl2  <0> d          13.434  47.408 -26.408  0.00  0.00    -0.101 Cl
ATOM      7  C5  <0> d          10.881  48.970 -25.974  0.00  0.00     0.042 C 
ATOM      8  C6  <0> d          10.570  50.404 -25.891  0.00  0.00    -0.075 C 
ATOM      9  C7  <0> d           9.442  50.973 -26.333  0.00  0.00     0.003 C 
ATOM     10  C8  <0> d           9.425  52.416 -26.553  0.00  0.00     0.000 C 
ATOM     11  C9  <0> d          10.431  53.123 -27.067  0.00  0.00     0.000 C 
ATOM     12  C10 <0> d          11.714  52.541 -27.474  0.00  0.00     0.003 C 
ATOM     13  C11 <0> d          12.218  51.584 -26.724  0.00  0.00    -0.075 C 
ATOM     14  C12 <0> d          11.507  51.446 -25.369  0.00  0.00     0.068 C 
ENDROOT
TORSDOF 0
ENDMDL
MODEL 2
REMARK VINA RESULT:      -5.9      4.082      5.581
REMARK  0 active torsions:
REMARK  status: ('A' for Active; 'I' for Inactive)
ROOT
ATOM      1  C1  <0> d          11.858  53.836 -28.631  0.00  0.00     0.042 C 
ATOM      2  C2  <0> d          11.218  55.026 -27.936  0.00  0.00     0.036 A 
ATOM      3  C3  <0> d           9.685  54.993 -27.587  0.00  0.00     0.036 A 
ATOM      4  C4  <0> d          10.244  55.931 -28.672  0.00  0.00     0.122 A 
ATOM      5 Cl1  <0> d          10.302  57.693 -28.292  0.00  0.00    -0.101 Cl
ATOM      6 Cl2  <0> d           9.872  55.523 -30.389  0.00  0.00    -0.101 Cl
ATOM      7  C5  <0> d           8.984  53.724 -28.126  0.00  0.00     0.042 C 
ATOM      8  C6  <0> d           9.616  52.606 -27.410  0.00  0.00    -0.075 C 
ATOM      9  C7  <0> d           9.451  52.334 -26.110  0.00  0.00     0.003 C 
ATOM     10  C8  <0> d          10.419  51.465 -25.448  0.00  0.00     0.000 C 
ATOM     11  C9  <0> d          11.734  51.478 -25.668  0.00  0.00     0.000 C 
ATOM     12  C10 <0> d          12.393  52.371 -26.627  0.00  0.00     0.003 C 
ATOM     13  C11 <0> d          11.778  52.605 -27.767  0.00  0.00    -0.075 C 
ATOM     14  C12 <0> d          10.597  51.655 -28.019  0.00  0.00     0.068 C 
ENDROOT
TORSDOF 0
ENDMDL
MODEL 3
REMARK VINA RESULT:      -5.6      3.253      4.758
REMARK  0 active torsions:
REMARK  status: ('A' for Active; 'I' for Inactive)
ROOT
ATOM      1  C1  <0> d           9.386  52.231 -26.643  0.00  0.00     0.042 C 
ATOM      2  C2  <0> d           9.720  52.387 -28.116  0.00  0.00     0.036 A 
ATOM      3  C3  <0> d          11.184  52.767 -28.548  0.00  0.00     0.036 A 
ATOM      4  C4  <0> d          10.014  53.754 -28.712  0.00  0.00     0.122 A 
ATOM      5 Cl1  <0> d           9.427  54.069 -30.388  0.00  0.00    -0.101 Cl
ATOM      6 Cl2  <0> d           9.964  55.170 -27.597  0.00  0.00    -0.101 Cl
ATOM      7  C5  <0> d          12.102  53.048 -27.335  0.00  0.00     0.042 C 
ATOM      8  C6  <0> d          12.182  51.770 -26.613  0.00  0.00    -0.075 C 
ATOM      9  C7  <0> d          12.826  50.680 -27.047  0.00  0.00     0.003 C 
ATOM     10  C8  <0> d          12.502  49.390 -26.446  0.00  0.00     0.000 C 
ATOM     11  C9  <0> d          11.277  48.993 -26.102  0.00  0.00     0.000 C 
ATOM     12  C10 <0> d          10.074  49.816 -26.270  0.00  0.00     0.003 C 
ATOM     13  C11 <0> d          10.177  51.105 -26.030  0.00  0.00    -0.075 C 
ATOM     14  C12 <0> d          11.486  51.482 -25.320  0.00  0.00     0.068 C 
ENDROOT
TORSDOF 0
ENDMDL
MODEL 4
REMARK VINA RESULT:      -5.5     22.868     24.496
REMARK  0 active torsions:
REMARK  status: ('A' for Active; 'I' for Inactive)
ROOT
ATOM      1  C1  <0> d          25.240  70.378 -25.741  0.00  0.00     0.042 C 
ATOM      2  C2  <0> d          24.682  69.097 -26.338  0.00  0.00     0.036 A 
ATOM      3  C3  <0> d          25.236  68.574 -27.715  0.00  0.00     0.036 A 
ATOM      4  C4  <0> d          23.807  69.130 -27.580  0.00  0.00     0.122 A 
ATOM      5 Cl1  <0> d          22.449  67.947 -27.666  0.00  0.00    -0.101 Cl
ATOM      6 Cl2  <0> d          23.474  70.743 -28.316  0.00  0.00    -0.101 Cl
ATOM      7  C5  <0> d          26.253  69.551 -28.351  0.00  0.00     0.042 C 
ATOM      8  C6  <0> d          27.385  69.587 -27.413  0.00  0.00    -0.075 C 
ATOM      9  C7  <0> d          28.244  68.580 -27.206  0.00  0.00     0.003 C 
ATOM     10  C8  <0> d          29.057  68.593 -25.994  0.00  0.00     0.000 C 
ATOM     11  C9  <0> d          28.631  68.981 -24.792  0.00  0.00     0.000 C 
ATOM     12  C10 <0> d          27.273  69.466 -24.523  0.00  0.00     0.003 C 
ATOM     13  C11 <0> d          26.707  70.231 -25.432  0.00  0.00    -0.075 C 
ATOM     14  C12 <0> d          27.693  70.729 -26.499  0.00  0.00     0.068 C 
ENDROOT
TORSDOF 0
ENDMDL
MODEL 5
REMARK VINA RESULT:      -5.4     25.959     27.311
REMARK  0 active torsions:
REMARK  status: ('A' for Active; 'I' for Inactive)
ROOT
ATOM      1  C1  <0> d          26.737  58.048  -5.981  0.00  0.00     0.042 C 
ATOM      2  C2  <0> d          26.844  58.019  -7.496  0.00  0.00     0.036 A 
ATOM      3  C3  <0> d          28.254  57.857  -8.174  0.00  0.00     0.036 A 
ATOM      4  C4  <0> d          27.467  59.177  -8.258  0.00  0.00     0.122 A 
ATOM      5 Cl1  <0> d          26.738  59.605  -9.851  0.00  0.00    -0.101 Cl
ATOM      6 Cl2  <0> d          28.082  60.569  -7.291  0.00  0.00    -0.101 Cl
ATOM      7  C5  <0> d          29.408  57.855  -7.144  0.00  0.00     0.042 C 
ATOM      8  C6  <0> d          29.182  56.659  -6.320  0.00  0.00    -0.075 C 
ATOM      9  C7  <0> d          29.344  55.396  -6.737  0.00  0.00     0.003 C 
ATOM     10  C8  <0> d          28.720  54.321  -5.973  0.00  0.00     0.000 C 
ATOM     11  C9  <0> d          27.511  54.383  -5.414  0.00  0.00     0.000 C 
ATOM     12  C10 <0> d          26.639  55.561  -5.481  0.00  0.00     0.003 C 
ATOM     13  C11 <0> d          27.203  56.746  -5.386  0.00  0.00    -0.075 C 
ATOM     14  C12 <0> d          28.664  56.680  -4.918  0.00  0.00     0.068 C 
ENDROOT
TORSDOF 0
ENDMDL
MODEL 6
REMARK VINA RESULT:      -5.3     23.587     24.829
REMARK  0 active torsions:
REMARK  status: ('A' for Active; 'I' for Inactive)
ROOT
ATOM      1  C1  <0> d          27.349  70.373 -24.960  0.00  0.00     0.042 C 
ATOM      2  C2  <0> d          26.249  69.463 -24.444  0.00  0.00     0.036 A 
ATOM      3  C3  <0> d          24.867  69.408 -25.193  0.00  0.00     0.036 A 
ATOM      4  C4  <0> d          25.000  70.035 -23.793  0.00  0.00     0.122 A 
ATOM      5 Cl1  <0> d          24.296  69.121 -22.407  0.00  0.00    -0.101 Cl
ATOM      6 Cl2  <0> d          24.878  71.830 -23.676  0.00  0.00    -0.101 Cl
ATOM      7  C5  <0> d          24.784  70.427 -26.353  0.00  0.00     0.042 C 
ATOM      8  C6  <0> d          25.813  69.999 -27.311  0.00  0.00    -0.075 C 
ATOM      9  C7  <0> d          25.748  68.896 -28.068  0.00  0.00     0.003 C 
ATOM     10  C8  <0> d          26.977  68.383 -28.665  0.00  0.00     0.000 C 
ATOM     11  C9  <0> d          28.167  68.360 -28.064  0.00  0.00     0.000 C 
ATOM     12  C10 <0> d          28.408  68.866 -26.708  0.00  0.00     0.003 C 
ATOM     13  C11 <0> d          27.779  69.963 -26.344  0.00  0.00    -0.075 C 
ATOM     14  C12 <0> d          27.119  70.696 -27.522  0.00  0.00     0.068 C 
ENDROOT
TORSDOF 0
ENDMDL
MODEL 7
REMARK VINA RESULT:      -5.3      3.051      4.697
REMARK  0 active torsions:
REMARK  status: ('A' for Active; 'I' for Inactive)
ROOT
ATOM      1  C1  <0> d           8.892  49.910 -26.904  0.00  0.00     0.042 C 
ATOM      2  C2  <0> d           9.380  51.096 -27.716  0.00  0.00     0.036 A 
ATOM      3  C3  <0> d          10.578  51.966 -27.184  0.00  0.00     0.036 A 
ATOM      4  C4  <0> d           9.144  52.521 -27.241  0.00  0.00     0.122 A 
ATOM      5 Cl1  <0> d           8.788  53.764 -28.498  0.00  0.00    -0.101 Cl
ATOM      6 Cl2  <0> d           8.277  52.737 -25.675  0.00  0.00    -0.101 Cl
ATOM      7  C5  <0> d          11.046  51.526 -25.777  0.00  0.00     0.042 C 
ATOM      8  C6  <0> d          11.549  50.156 -25.953  0.00  0.00    -0.075 C 
ATOM      9  C7  <0> d          12.674  49.827 -26.602  0.00  0.00     0.003 C 
ATOM     10  C8  <0> d          12.849  48.447 -27.043  0.00  0.00     0.000 C 
ATOM     11  C9  <0> d          11.884  47.676 -27.545  0.00  0.00     0.000 C 
ATOM     12  C10 <0> d          10.493  48.113 -27.711  0.00  0.00     0.003 C 
ATOM     13  C11 <0> d           9.974  48.871 -26.770  0.00  0.00    -0.075 C 
ATOM     14  C12 <0> d          10.834  48.924 -25.498  0.00  0.00     0.068 C 
ENDROOT
TORSDOF 0
ENDMDL
MODEL 8
REMARK VINA RESULT:      -5.2      2.464      4.395
REMARK  0 active torsions:
REMARK  status: ('A' for Active; 'I' for Inactive)
ROOT
ATOM      1  C1  <0> d           9.062  52.693 -27.742  0.00  0.00     0.042 C 
ATOM      2  C2  <0> d           9.996  52.340 -26.598  0.00  0.00     0.036 A 
ATOM      3  C3  <0> d          11.552  52.344 -26.833  0.00  0.00     0.036 A 
ATOM      4  C4  <0> d          10.776  51.035 -26.600  0.00  0.00     0.122 A 
ATOM      5 Cl1  <0> d          11.008  50.208 -25.014  0.00  0.00    -0.101 Cl
ATOM      6 Cl2  <0> d          10.555  49.941 -28.016  0.00  0.00    -0.101 Cl
ATOM      7  C5  <0> d          11.925  52.621 -28.308  0.00  0.00     0.042 C 
ATOM      8  C6  <0> d          11.442  53.984 -28.574  0.00  0.00    -0.075 C 
ATOM      9  C7  <0> d          11.977  55.102 -28.066  0.00  0.00     0.003 C 
ATOM     10  C8  <0> d          11.184  56.327 -28.083  0.00  0.00     0.000 C 
ATOM     11  C9  <0> d           9.873  56.392 -27.847  0.00  0.00     0.000 C 
ATOM     12  C10 <0> d           9.037  55.225 -27.547  0.00  0.00     0.003 C 
ATOM     13  C11 <0> d           9.288  54.110 -28.200  0.00  0.00    -0.075 C 
ATOM     14  C12 <0> d          10.234  54.311 -29.393  0.00  0.00     0.068 C 
ENDROOT
TORSDOF 0
ENDMDL
MODEL 9
REMARK VINA RESULT:      -5.2      3.730      5.112
REMARK  0 active torsions:
REMARK  status: ('A' for Active; 'I' for Inactive)
ROOT
ATOM      1  C1  <0> d           9.366  53.118 -28.350  0.00  0.00     0.042 C 
ATOM      2  C2  <0> d           8.611  53.644 -27.142  0.00  0.00     0.036 A 
ATOM      3  C3  <0> d           8.167  52.650 -26.007  0.00  0.00     0.036 A 
ATOM      4  C4  <0> d           7.141  53.321 -26.937  0.00  0.00     0.122 A 
ATOM      5 Cl1  <0> d           6.102  54.612 -26.226  0.00  0.00    -0.101 Cl
ATOM      6 Cl2  <0> d           6.341  52.282 -28.175  0.00  0.00    -0.101 Cl
ATOM      7  C5  <0> d           8.488  51.177 -26.354  0.00  0.00     0.042 C 
ATOM      8  C6  <0> d           9.955  51.115 -26.435  0.00  0.00    -0.075 C 
ATOM      9  C7  <0> d          10.788  51.214 -25.391  0.00  0.00     0.003 C 
ATOM     10  C8  <0> d          12.190  51.533 -25.642  0.00  0.00     0.000 C 
ATOM     11  C9  <0> d          12.625  52.400 -26.556  0.00  0.00     0.000 C 
ATOM     12  C10 <0> d          11.742  53.151 -27.456  0.00  0.00     0.003 C 
ATOM     13  C11 <0> d          10.690  52.527 -27.940  0.00  0.00    -0.075 C 
ATOM     14  C12 <0> d          10.731  51.009 -27.709  0.00  0.00     0.068 C 
ENDROOT
TORSDOF 0
ENDMDL
MODEL 10
REMARK VINA RESULT:      -5.2      3.125      4.616
REMARK  0 active torsions:
REMARK  status: ('A' for Active; 'I' for Inactive)
ROOT
ATOM      1  C1  <0> d          11.767  51.644 -26.057  0.00  0.00     0.042 C 
ATOM      2  C2  <0> d          10.452  52.067 -26.688  0.00  0.00     0.036 A 
ATOM      3  C3  <0> d          10.254  51.930 -28.243  0.00  0.00     0.036 A 
ATOM      4  C4  <0> d          10.367  53.307 -27.563  0.00  0.00     0.122 A 
ATOM      5 Cl1  <0> d           8.864  54.298 -27.450  0.00  0.00    -0.101 Cl
ATOM      6 Cl2  <0> d          11.888  54.239 -27.828  0.00  0.00    -0.101 Cl
ATOM      7  C5  <0> d          11.539  51.456 -28.962  0.00  0.00     0.042 C 
ATOM      8  C6  <0> d          11.794  50.107 -28.436  0.00  0.00    -0.075 C 
ATOM      9  C7  <0> d          11.056  49.024 -28.708  0.00  0.00     0.003 C 
ATOM     10  C8  <0> d          11.169  47.862 -27.833  0.00  0.00     0.000 C 
ATOM     11  C9  <0> d          11.292  47.913 -26.506  0.00  0.00     0.000 C 
ATOM     12  C10 <0> d          11.344  49.161 -25.738  0.00  0.00     0.003 C 
ATOM     13  C11 <0> d          12.008  50.171 -26.257  0.00  0.00    -0.075 C 
ATOM     14  C12 <0> d          12.875  49.767 -27.460  0.00  0.00     0.068 C 
ENDROOT
TORSDOF 0
ENDMDL
