MODEL 1
REMARK VINA RESULT:      -5.4      0.000      0.000
REMARK  0 active torsions:
REMARK  status: ('A' for Active; 'I' for Inactive)
ROOT
ATOM      1  C1  <0> d          28.141  69.864 -24.642  0.00  0.00     0.065 A 
ATOM      2  C2  <0> d          29.039  69.777 -23.590  0.00  0.00     0.108 A 
ATOM      3  C3  <0> d          30.109  68.886 -23.665  0.00  0.00     0.092 A 
ATOM      4  C4  <0> d          30.274  68.092 -24.789  0.00  0.00     0.087 A 
ATOM      5  C5  <0> d          29.374  68.184 -25.835  0.00  0.00     0.080 A 
ATOM      6  C6  <0> d          28.310  69.069 -25.761  0.00  0.00     0.060 A 
ATOM      7 Cl1  <0> d          27.185  69.181 -27.078  0.00  0.00    -0.082 Cl
ATOM      8 Cl2  <0> d          29.577  67.192 -27.245  0.00  0.00    -0.081 Cl
ATOM      9 Cl3  <0> d          31.606  66.983 -24.883  0.00  0.00    -0.080 Cl
ATOM     10  N1  <0> d          30.825  69.023 -22.475  0.00  0.00    -0.323 N 
ATOM     11  H1  <0> d          31.627  68.535 -22.230  0.00  0.00     0.169 HD
ATOM     12  C7  <0> d          30.201  69.956 -21.731  0.00  0.00     0.220 A 
ATOM     13  S1  <0> d          30.699  70.480 -20.179  0.00  0.00    -0.033 SA
ATOM     14  O1  <0> d          29.123  70.408 -22.393  0.00  0.00    -0.282 OA
ENDROOT
TORSDOF 0
ENDMDL
MODEL 2
REMARK VINA RESULT:      -5.3      3.785      5.006
REMARK  0 active torsions:
REMARK  status: ('A' for Active; 'I' for Inactive)
ROOT
ATOM      1  C1  <0> d          30.409  67.927 -25.318  0.00  0.00     0.065 A 
ATOM      2  C2  <0> d          29.273  68.531 -25.834  0.00  0.00     0.108 A 
ATOM      3  C3  <0> d          28.596  69.489 -25.081  0.00  0.00     0.092 A 
ATOM      4  C4  <0> d          29.057  69.835 -23.820  0.00  0.00     0.087 A 
ATOM      5  C5  <0> d          30.191  69.228 -23.312  0.00  0.00     0.080 A 
ATOM      6  C6  <0> d          30.865  68.276 -24.060  0.00  0.00     0.060 A 
ATOM      7 Cl1  <0> d          32.288  67.519 -23.416  0.00  0.00    -0.082 Cl
ATOM      8 Cl2  <0> d          30.772  69.659 -21.734  0.00  0.00    -0.081 Cl
ATOM      9 Cl3  <0> d          28.214  71.028 -22.883  0.00  0.00    -0.080 Cl
ATOM     10  N1  <0> d          27.512  69.908 -25.853  0.00  0.00    -0.323 N 
ATOM     11  H1  <0> d          26.851  70.572 -25.600  0.00  0.00     0.169 HD
ATOM     12  C7  <0> d          27.551  69.224 -27.013  0.00  0.00     0.220 A 
ATOM     13  S1  <0> d          26.429  69.387 -28.295  0.00  0.00    -0.033 SA
ATOM     14  O1  <0> d          28.604  68.391 -27.004  0.00  0.00    -0.282 OA
ENDROOT
TORSDOF 0
ENDMDL
MODEL 3
REMARK VINA RESULT:      -5.2      3.231      4.238
REMARK  0 active torsions:
REMARK  status: ('A' for Active; 'I' for Inactive)
ROOT
ATOM      1  C1  <0> d          28.972  69.971 -23.583  0.00  0.00     0.065 A 
ATOM      2  C2  <0> d          28.078  69.853 -24.636  0.00  0.00     0.108 A 
ATOM      3  C3  <0> d          28.332  68.944 -25.661  0.00  0.00     0.092 A 
ATOM      4  C4  <0> d          29.476  68.161 -25.627  0.00  0.00     0.087 A 
ATOM      5  C5  <0> d          30.363  68.283 -24.574  0.00  0.00     0.080 A 
ATOM      6  C6  <0> d          30.111  69.187 -23.554  0.00  0.00     0.060 A 
ATOM      7 Cl1  <0> d          31.228  69.334 -22.233  0.00  0.00    -0.082 Cl
ATOM      8 Cl2  <0> d          31.795  67.304 -24.527  0.00  0.00    -0.081 Cl
ATOM      9 Cl3  <0> d          29.792  67.028 -26.905  0.00  0.00    -0.080 Cl
ATOM     10  N1  <0> d          27.272  69.054 -26.562  0.00  0.00    -0.323 N 
ATOM     11  H1  <0> d          27.163  68.547 -27.382  0.00  0.00     0.169 HD
ATOM     12  C7  <0> d          26.429  69.989 -26.085  0.00  0.00     0.220 A 
ATOM     13  S1  <0> d          24.972  70.484 -26.836  0.00  0.00    -0.033 SA
ATOM     14  O1  <0> d          26.911  70.478 -24.930  0.00  0.00    -0.282 OA
ENDROOT
TORSDOF 0
ENDMDL
MODEL 4
REMARK VINA RESULT:      -5.2      1.313      2.642
REMARK  0 active torsions:
REMARK  status: ('A' for Active; 'I' for Inactive)
ROOT
ATOM      1  C1  <0> d          30.228  67.872 -25.034  0.00  0.00     0.065 A 
ATOM      2  C2  <0> d          30.121  68.670 -23.906  0.00  0.00     0.108 A 
ATOM      3  C3  <0> d          29.161  69.680 -23.861  0.00  0.00     0.092 A 
ATOM      4  C4  <0> d          28.317  69.884 -24.942  0.00  0.00     0.087 A 
ATOM      5  C5  <0> d          28.430  69.084 -26.064  0.00  0.00     0.080 A 
ATOM      6  C6  <0> d          29.384  68.080 -26.109  0.00  0.00     0.060 A 
ATOM      7 Cl1  <0> d          29.519  67.078 -27.520  0.00  0.00    -0.082 Cl
ATOM      8 Cl2  <0> d          27.374  69.336 -27.419  0.00  0.00    -0.081 Cl
ATOM      9 Cl3  <0> d          27.121  71.141 -24.887  0.00  0.00    -0.080 Cl
ATOM     10  N1  <0> d          29.295  70.302 -22.619  0.00  0.00    -0.323 N 
ATOM     11  H1  <0> d          28.765  71.044 -22.291  0.00  0.00     0.169 HD
ATOM     12  C7  <0> d          30.293  69.682 -21.961  0.00  0.00     0.220 A 
ATOM     13  S1  <0> d          30.840  70.083 -20.389  0.00  0.00    -0.033 SA
ATOM     14  O1  <0> d          30.797  68.704 -22.732  0.00  0.00    -0.282 OA
ENDROOT
TORSDOF 0
ENDMDL
MODEL 5
REMARK VINA RESULT:      -5.1      1.742      2.284
REMARK  0 active torsions:
REMARK  status: ('A' for Active; 'I' for Inactive)
ROOT
ATOM      1  C1  <0> d          27.469  70.479 -25.474  0.00  0.00     0.065 A 
ATOM      2  C2  <0> d          28.594  69.912 -24.895  0.00  0.00     0.108 A 
ATOM      3  C3  <0> d          29.247  68.860 -25.536  0.00  0.00     0.092 A 
ATOM      4  C4  <0> d          28.772  68.384 -26.748  0.00  0.00     0.087 A 
ATOM      5  C5  <0> d          27.649  68.955 -27.320  0.00  0.00     0.080 A 
ATOM      6  C6  <0> d          27.000  70.001 -26.683  0.00  0.00     0.060 A 
ATOM      7 Cl1  <0> d          25.592  70.713 -27.407  0.00  0.00    -0.082 Cl
ATOM      8 Cl2  <0> d          27.052  68.362 -28.838  0.00  0.00    -0.081 Cl
ATOM      9 Cl3  <0> d          29.585  67.075 -27.547  0.00  0.00    -0.080 Cl
ATOM     10  N1  <0> d          30.324  68.506 -24.723  0.00  0.00    -0.323 N 
ATOM     11  H1  <0> d          30.969  67.804 -24.901  0.00  0.00     0.169 HD
ATOM     12  C7  <0> d          30.305  69.317 -23.648  0.00  0.00     0.220 A 
ATOM     13  S1  <0> d          31.430  69.276 -22.358  0.00  0.00    -0.033 SA
ATOM     14  O1  <0> d          29.264  70.160 -23.743  0.00  0.00    -0.282 OA
ENDROOT
TORSDOF 0
ENDMDL
MODEL 6
REMARK VINA RESULT:      -5.1      3.215      4.103
REMARK  0 active torsions:
REMARK  status: ('A' for Active; 'I' for Inactive)
ROOT
ATOM      1  C1  <0> d          27.385  70.821 -25.236  0.00  0.00     0.065 A 
ATOM      2  C2  <0> d          28.245  69.746 -25.398  0.00  0.00     0.108 A 
ATOM      3  C3  <0> d          28.176  68.972 -26.555  0.00  0.00     0.092 A 
ATOM      4  C4  <0> d          27.249  69.277 -27.540  0.00  0.00     0.087 A 
ATOM      5  C5  <0> d          26.394  70.350 -27.371  0.00  0.00     0.080 A 
ATOM      6  C6  <0> d          26.463  71.121 -26.221  0.00  0.00     0.060 A 
ATOM      7 Cl1  <0> d          25.387  72.468 -26.018  0.00  0.00    -0.082 Cl
ATOM      8 Cl2  <0> d          25.232  70.736 -28.603  0.00  0.00    -0.081 Cl
ATOM      9 Cl3  <0> d          27.161  68.312 -28.981  0.00  0.00    -0.080 Cl
ATOM     10  N1  <0> d          29.150  67.980 -26.430  0.00  0.00    -0.323 N 
ATOM     11  H1  <0> d          29.346  67.286 -27.077  0.00  0.00     0.169 HD
ATOM     12  C7  <0> d          29.767  68.165 -25.247  0.00  0.00     0.220 A 
ATOM     13  S1  <0> d          31.041  67.200 -24.634  0.00  0.00    -0.033 SA
ATOM     14  O1  <0> d          29.223  69.222 -24.620  0.00  0.00    -0.282 OA
ENDROOT
TORSDOF 0
ENDMDL
MODEL 7
REMARK VINA RESULT:      -5.0     20.695     21.985
REMARK  0 active torsions:
REMARK  status: ('A' for Active; 'I' for Inactive)
ROOT
ATOM      1  C1  <0> d          28.933  55.873  -6.981  0.00  0.00     0.065 A 
ATOM      2  C2  <0> d          28.209  56.962  -7.441  0.00  0.00     0.108 A 
ATOM      3  C3  <0> d          27.198  57.505  -6.650  0.00  0.00     0.092 A 
ATOM      4  C4  <0> d          26.917  56.956  -5.408  0.00  0.00     0.087 A 
ATOM      5  C5  <0> d          27.643  55.870  -4.956  0.00  0.00     0.080 A 
ATOM      6  C6  <0> d          28.649  55.329  -5.742  0.00  0.00     0.060 A 
ATOM      7 Cl1  <0> d          29.557  53.966  -5.167  0.00  0.00    -0.082 Cl
ATOM      8 Cl2  <0> d          27.296  55.181  -3.401  0.00  0.00    -0.081 Cl
ATOM      9 Cl3  <0> d          25.658  57.633  -4.423  0.00  0.00    -0.080 Cl
ATOM     10  N1  <0> d          26.659  58.572  -7.370  0.00  0.00    -0.323 N 
ATOM     11  H1  <0> d          25.936  59.150  -7.082  0.00  0.00     0.169 HD
ATOM     12  C7  <0> d          27.328  58.653  -8.537  0.00  0.00     0.220 A 
ATOM     13  S1  <0> d          27.035  59.807  -9.767  0.00  0.00    -0.033 SA
ATOM     14  O1  <0> d          28.257  57.684  -8.587  0.00  0.00    -0.282 OA
ENDROOT
TORSDOF 0
ENDMDL
MODEL 8
REMARK VINA RESULT:      -4.9      3.197      3.923
REMARK  0 active torsions:
REMARK  status: ('A' for Active; 'I' for Inactive)
ROOT
ATOM      1  C1  <0> d          27.571  69.581 -27.134  0.00  0.00     0.065 A 
ATOM      2  C2  <0> d          28.343  69.340 -26.009  0.00  0.00     0.108 A 
ATOM      3  C3  <0> d          27.739  69.283 -24.754  0.00  0.00     0.092 A 
ATOM      4  C4  <0> d          26.370  69.466 -24.633  0.00  0.00     0.087 A 
ATOM      5  C5  <0> d          25.606  69.706 -25.760  0.00  0.00     0.080 A 
ATOM      6  C6  <0> d          26.206  69.763 -27.008  0.00  0.00     0.060 A 
ATOM      7 Cl1  <0> d          25.240  70.063 -28.419  0.00  0.00    -0.082 Cl
ATOM      8 Cl2  <0> d          23.892  69.935 -25.613  0.00  0.00    -0.081 Cl
ATOM      9 Cl3  <0> d          25.617  69.394 -23.070  0.00  0.00    -0.080 Cl
ATOM     10  N1  <0> d          28.757  69.031 -23.833  0.00  0.00    -0.323 N 
ATOM     11  H1  <0> d          28.650  68.935 -22.874  0.00  0.00     0.169 HD
ATOM     12  C7  <0> d          29.912  68.943 -24.520  0.00  0.00     0.220 A 
ATOM     13  S1  <0> d          31.451  68.642 -23.832  0.00  0.00    -0.033 SA
ATOM     14  O1  <0> d          29.671  69.134 -25.827  0.00  0.00    -0.282 OA
ENDROOT
TORSDOF 0
ENDMDL
MODEL 9
REMARK VINA RESULT:      -4.7      4.612      5.370
REMARK  0 active torsions:
REMARK  status: ('A' for Active; 'I' for Inactive)
ROOT
ATOM      1  C1  <0> d          24.833  69.311 -24.693  0.00  0.00     0.065 A 
ATOM      2  C2  <0> d          25.802  69.387 -25.680  0.00  0.00     0.108 A 
ATOM      3  C3  <0> d          27.146  69.494 -25.324  0.00  0.00     0.092 A 
ATOM      4  C4  <0> d          27.510  69.523 -23.987  0.00  0.00     0.087 A 
ATOM      5  C5  <0> d          26.536  69.446 -23.007  0.00  0.00     0.080 A 
ATOM      6  C6  <0> d          25.201  69.340 -23.360  0.00  0.00     0.060 A 
ATOM      7 Cl1  <0> d          23.985  69.243 -22.125  0.00  0.00    -0.082 Cl
ATOM      8 Cl2  <0> d          26.988  69.482 -21.331  0.00  0.00    -0.081 Cl
ATOM      9 Cl3  <0> d          29.183  69.655 -23.543  0.00  0.00    -0.080 Cl
ATOM     10  N1  <0> d          27.870  69.551 -26.515  0.00  0.00    -0.323 N 
ATOM     11  H1  <0> d          28.834  69.627 -26.597  0.00  0.00     0.169 HD
ATOM     12  C7  <0> d          26.987  69.482 -27.531  0.00  0.00     0.220 A 
ATOM     13  S1  <0> d          27.389  69.513 -29.195  0.00  0.00    -0.033 SA
ATOM     14  O1  <0> d          25.742  69.389 -27.034  0.00  0.00    -0.282 OA
ENDROOT
TORSDOF 0
ENDMDL
MODEL 10
REMARK VINA RESULT:      -4.7      4.830      5.805
REMARK  0 active torsions:
REMARK  status: ('A' for Active; 'I' for Inactive)
ROOT
ATOM      1  C1  <0> d          27.190  68.736 -28.346  0.00  0.00     0.065 A 
ATOM      2  C2  <0> d          26.271  69.718 -28.010  0.00  0.00     0.108 A 
ATOM      3  C3  <0> d          26.390  70.390 -26.794  0.00  0.00     0.092 A 
ATOM      4  C4  <0> d          27.424  70.076 -25.926  0.00  0.00     0.087 A 
ATOM      5  C5  <0> d          28.337  69.096 -26.268  0.00  0.00     0.080 A 
ATOM      6  C6  <0> d          28.220  68.428 -27.477  0.00  0.00     0.060 A 
ATOM      7 Cl1  <0> d          29.371  67.200 -27.901  0.00  0.00    -0.082 Cl
ATOM      8 Cl2  <0> d          29.634  68.702 -25.184  0.00  0.00    -0.081 Cl
ATOM      9 Cl3  <0> d          27.572  70.913 -24.412  0.00  0.00    -0.080 Cl
ATOM     10  N1  <0> d          25.336  71.303 -26.739  0.00  0.00    -0.323 N 
ATOM     11  H1  <0> d          25.150  71.919 -26.014  0.00  0.00     0.169 HD
ATOM     12  C7  <0> d          24.627  71.173 -27.877  0.00  0.00     0.220 A 
ATOM     13  S1  <0> d          23.233  72.080 -28.283  0.00  0.00    -0.033 SA
ATOM     14  O1  <0> d          25.181  70.218 -28.642  0.00  0.00    -0.282 OA
ENDROOT
TORSDOF 0
ENDMDL
