MODEL 1
REMARK VINA RESULT:      -7.6      0.000      0.000
REMARK  3 active torsions:
REMARK  status: ('A' for Active; 'I' for Inactive)
REMARK    1  A    between atoms: C2_2  and  N1_4 
REMARK    2  A    between atoms: C6_8  and  C7_9 
REMARK    3  A    between atoms: C10_12  and  C11_14 
ROOT
ATOM      1  C7  <0> d          31.316  68.265 -23.863  0.00  0.00     0.077 A 
ATOM      2  C8  <0> d          32.552  68.877 -23.748  0.00  0.00     0.040 A 
ATOM      3  C9  <0> d          32.503  69.670 -22.598  0.00  0.00     0.041 A 
ATOM      4  C10 <0> d          31.247  69.516 -22.055  0.00  0.00     0.086 A 
ATOM      5  O2  <0> d          30.550  68.662 -22.826  0.00  0.00    -0.310 OA
ENDROOT
BRANCH   1   6
ATOM      6  C6  <0> d          30.928  67.373 -24.886  0.00  0.00     0.061 C 
ATOM      7  C5  <0> d          29.959  67.736 -25.775  0.00  0.00     0.081 A 
ATOM      8  C4  <0> d          29.119  68.891 -25.784  0.00  0.00     0.268 A 
ATOM      9  S1  <0> d          29.400  66.897 -27.253  0.00  0.00    -0.023 SA
ATOM     10  N1  <0> d          28.246  69.016 -26.768  0.00  0.00    -0.270 N 
ATOM     11  O1  <0> d          29.207  69.736 -24.911  0.00  0.00    -0.266 OA
ATOM     12  C17 <0> d          28.150  68.078 -27.737  0.00  0.00     0.294 A 
ATOM     13  O3  <0> d          27.405  68.049 -28.698  0.00  0.00    -0.259 OA
BRANCH  10  14
ATOM     14  C2  <0> d          27.369  70.189 -26.809  0.00  0.00     0.088 C 
ATOM     15  C1  <0> d          27.419  70.814 -28.204  0.00  0.00     0.032 C 
ATOM     16  C3  <0> d          25.933  69.763 -26.492  0.00  0.00     0.032 C 
ENDBRANCH  10  14
ENDBRANCH   1   6
BRANCH   4  17
ATOM     17  C11 <0> d          30.753  70.171 -20.829  0.00  0.00    -0.001 A 
ATOM     18  C16 <0> d          30.928  71.544 -20.648  0.00  0.00     0.039 A 
ATOM     19  C15 <0> d          30.463  72.150 -19.498  0.00  0.00     0.052 A 
ATOM     20  C14 <0> d          29.822  71.398 -18.526  0.00  0.00     0.032 A 
ATOM     21 Cl1  <0> d          30.679  73.858 -19.271  0.00  0.00    -0.083 Cl
ATOM     22  C13 <0> d          29.645  70.037 -18.701  0.00  0.00     0.022 A 
ATOM     23 Br1  <0> d          29.180  72.238 -16.959  0.00  0.00    -0.049 Br
ATOM     24  C12 <0> d          30.106  69.419 -19.845  0.00  0.00     0.016 A 
ENDBRANCH   4  17
TORSDOF 3
ENDMDL
MODEL 2
REMARK VINA RESULT:      -7.1      2.508      3.538
REMARK  3 active torsions:
REMARK  status: ('A' for Active; 'I' for Inactive)
REMARK    1  A    between atoms: C2_2  and  N1_4 
REMARK    2  A    between atoms: C6_8  and  C7_9 
REMARK    3  A    between atoms: C10_12  and  C11_14 
ROOT
ATOM      1  C7  <0> d          30.863  70.104 -21.102  0.00  0.00     0.077 A 
ATOM      2  C8  <0> d          30.506  69.645 -19.847  0.00  0.00     0.040 A 
ATOM      3  C9  <0> d          30.300  70.773 -19.048  0.00  0.00     0.041 A 
ATOM      4  C10 <0> d          30.537  71.875 -19.839  0.00  0.00     0.086 A 
ATOM      5  O2  <0> d          30.868  71.453 -21.073  0.00  0.00    -0.310 OA
ENDROOT
BRANCH   1   6
ATOM      6  C6  <0> d          31.163  69.299 -22.222  0.00  0.00     0.061 C 
ATOM      7  C5  <0> d          30.347  69.321 -23.316  0.00  0.00     0.081 A 
ATOM      8  C4  <0> d          29.087  69.968 -23.497  0.00  0.00     0.268 A 
ATOM      9  S1  <0> d          30.571  68.556 -24.917  0.00  0.00    -0.023 SA
ATOM     10  N1  <0> d          28.485  69.838 -24.666  0.00  0.00    -0.270 N 
ATOM     11  O1  <0> d          28.582  70.619 -22.600  0.00  0.00    -0.266 OA
ATOM     12  C17 <0> d          29.046  69.114 -25.661  0.00  0.00     0.294 A 
ATOM     13  O3  <0> d          28.621  68.902 -26.782  0.00  0.00    -0.259 OA
BRANCH  10  14
ATOM     14  C2  <0> d          27.190  70.487 -24.888  0.00  0.00     0.088 C 
ATOM     15  C1  <0> d          27.229  71.266 -26.204  0.00  0.00     0.032 C 
ATOM     16  C3  <0> d          26.091  69.424 -24.956  0.00  0.00     0.032 C 
ENDBRANCH  10  14
ENDBRANCH   1   6
BRANCH   4  17
ATOM     17  C11 <0> d          30.437  73.282 -19.408  0.00  0.00    -0.001 A 
ATOM     18  C16 <0> d          29.257  73.757 -18.832  0.00  0.00     0.039 A 
ATOM     19  C15 <0> d          29.170  75.075 -18.431  0.00  0.00     0.052 A 
ATOM     20  C14 <0> d          30.251  75.926 -18.598  0.00  0.00     0.032 A 
ATOM     21 Cl1  <0> d          27.704  75.667 -17.713  0.00  0.00    -0.083 Cl
ATOM     22  C13 <0> d          31.423  75.461 -19.169  0.00  0.00     0.022 A 
ATOM     23 Br1  <0> d          30.126  77.727 -18.038  0.00  0.00    -0.049 Br
ATOM     24  C12 <0> d          31.523  74.146 -19.574  0.00  0.00     0.016 A 
ENDBRANCH   4  17
TORSDOF 3
ENDMDL
MODEL 3
REMARK VINA RESULT:      -7.1      4.886      7.924
REMARK  3 active torsions:
REMARK  status: ('A' for Active; 'I' for Inactive)
REMARK    1  A    between atoms: C2_2  and  N1_4 
REMARK    2  A    between atoms: C6_8  and  C7_9 
REMARK    3  A    between atoms: C10_12  and  C11_14 
ROOT
ATOM      1  C7  <0> d          29.360  69.558 -23.907  0.00  0.00     0.077 A 
ATOM      2  C8  <0> d          29.726  68.537 -24.765  0.00  0.00     0.040 A 
ATOM      3  C9  <0> d          28.833  68.574 -25.841  0.00  0.00     0.041 A 
ATOM      4  C10 <0> d          27.959  69.611 -25.602  0.00  0.00     0.086 A 
ATOM      5  O2  <0> d          28.295  70.195 -24.438  0.00  0.00    -0.310 OA
ENDROOT
BRANCH   1   6
ATOM      6  C6  <0> d          29.996  69.882 -22.690  0.00  0.00     0.061 C 
ATOM      7  C5  <0> d          29.375  69.615 -21.504  0.00  0.00     0.081 A 
ATOM      8  C4  <0> d          28.050  69.144 -21.257  0.00  0.00     0.268 A 
ATOM      9  S1  <0> d          30.005  69.752 -19.835  0.00  0.00    -0.023 SA
ATOM     10  N1  <0> d          27.680  68.961 -20.002  0.00  0.00    -0.270 N 
ATOM     11  O1  <0> d          27.284  68.918 -22.177  0.00  0.00    -0.266 OA
ATOM     12  C17 <0> d          28.531  69.212 -18.982  0.00  0.00     0.294 A 
ATOM     13  O3  <0> d          28.342  69.095 -17.785  0.00  0.00    -0.259 OA
BRANCH  10  14
ATOM     14  C2  <0> d          26.327  68.478 -19.711  0.00  0.00     0.088 C 
ATOM     15  C1  <0> d          26.409  67.106 -19.040  0.00  0.00     0.032 C 
ATOM     16  C3  <0> d          25.625  69.464 -18.775  0.00  0.00     0.032 C 
ENDBRANCH  10  14
ENDBRANCH   1   6
BRANCH   4  17
ATOM     17  C11 <0> d          26.845  70.017 -26.480  0.00  0.00    -0.001 A 
ATOM     18  C16 <0> d          25.702  69.222 -26.577  0.00  0.00     0.039 A 
ATOM     19  C15 <0> d          24.664  69.609 -27.401  0.00  0.00     0.052 A 
ATOM     20  C14 <0> d          24.755  70.784 -28.130  0.00  0.00     0.032 A 
ATOM     21 Cl1  <0> d          23.240  68.622 -27.522  0.00  0.00    -0.083 Cl
ATOM     22  C13 <0> d          25.886  71.576 -28.038  0.00  0.00     0.022 A 
ATOM     23 Br1  <0> d          23.325  71.310 -29.249  0.00  0.00    -0.049 Br
ATOM     24  C12 <0> d          26.931  71.201 -27.218  0.00  0.00     0.016 A 
ENDBRANCH   4  17
TORSDOF 3
ENDMDL
MODEL 4
REMARK VINA RESULT:      -6.9      2.609      3.608
REMARK  3 active torsions:
REMARK  status: ('A' for Active; 'I' for Inactive)
REMARK    1  A    between atoms: C2_2  and  N1_4 
REMARK    2  A    between atoms: C6_8  and  C7_9 
REMARK    3  A    between atoms: C10_12  and  C11_14 
ROOT
ATOM      1  C7  <0> d          28.946  69.447 -25.774  0.00  0.00     0.077 A 
ATOM      2  C8  <0> d          29.366  68.137 -25.634  0.00  0.00     0.040 A 
ATOM      3  C9  <0> d          29.635  67.942 -24.276  0.00  0.00     0.041 A 
ATOM      4  C10 <0> d          29.372  69.134 -23.639  0.00  0.00     0.086 A 
ATOM      5  O2  <0> d          28.952  70.026 -24.555  0.00  0.00    -0.310 OA
ENDROOT
BRANCH   1   6
ATOM      6  C6  <0> d          28.569  70.069 -26.983  0.00  0.00     0.061 C 
ATOM      7  C5  <0> d          27.249  70.157 -27.323  0.00  0.00     0.081 A 
ATOM      8  C4  <0> d          26.107  69.582 -26.687  0.00  0.00     0.268 A 
ATOM      9  S1  <0> d          26.480  71.030 -28.681  0.00  0.00    -0.023 SA
ATOM     10  N1  <0> d          24.919  69.817 -27.215  0.00  0.00    -0.270 N 
ATOM     11  O1  <0> d          26.225  68.897 -25.687  0.00  0.00    -0.266 OA
ATOM     12  C17 <0> d          24.789  70.578 -28.325  0.00  0.00     0.294 A 
ATOM     13  O3  <0> d          23.776  70.882 -28.926  0.00  0.00    -0.259 OA
BRANCH  10  14
ATOM     14  C2  <0> d          23.725  69.244 -26.590  0.00  0.00     0.088 C 
ATOM     15  C1  <0> d          22.744  70.365 -26.240  0.00  0.00     0.032 C 
ATOM     16  C3  <0> d          23.058  68.267 -27.562  0.00  0.00     0.032 C 
ENDBRANCH  10  14
ENDBRANCH   1   6
BRANCH   4  17
ATOM     17  C11 <0> d          29.518  69.388 -22.192  0.00  0.00    -0.001 A 
ATOM     18  C16 <0> d          28.416  69.264 -21.344  0.00  0.00     0.039 A 
ATOM     19  C15 <0> d          28.561  69.503 -19.992  0.00  0.00     0.052 A 
ATOM     20  C14 <0> d          29.796  69.865 -19.477  0.00  0.00     0.032 A 
ATOM     21 Cl1  <0> d          27.193  69.349 -18.934  0.00  0.00    -0.083 Cl
ATOM     22  C13 <0> d          30.891  69.990 -20.314  0.00  0.00     0.022 A 
ATOM     23 Br1  <0> d          29.986  70.183 -17.623  0.00  0.00    -0.049 Br
ATOM     24  C12 <0> d          30.760  69.753 -21.667  0.00  0.00     0.016 A 
ENDBRANCH   4  17
TORSDOF 3
ENDMDL
MODEL 5
REMARK VINA RESULT:      -6.9      4.647      8.223
REMARK  3 active torsions:
REMARK  status: ('A' for Active; 'I' for Inactive)
REMARK    1  A    between atoms: C2_2  and  N1_4 
REMARK    2  A    between atoms: C6_8  and  C7_9 
REMARK    3  A    between atoms: C10_12  and  C11_14 
ROOT
ATOM      1  C7  <0> d          27.319  69.023 -28.175  0.00  0.00     0.077 A 
ATOM      2  C8  <0> d          27.403  70.187 -28.919  0.00  0.00     0.040 A 
ATOM      3  C9  <0> d          26.115  70.728 -28.967  0.00  0.00     0.041 A 
ATOM      4  C10 <0> d          25.296  69.881 -28.255  0.00  0.00     0.086 A 
ATOM      5  O2  <0> d          26.039  68.864 -27.781  0.00  0.00    -0.310 OA
ENDROOT
BRANCH   1   6
ATOM      6  C6  <0> d          28.391  68.156 -27.875  0.00  0.00     0.061 C 
ATOM      7  C5  <0> d          28.956  68.174 -26.632  0.00  0.00     0.081 A 
ATOM      8  C4  <0> d          28.722  69.064 -25.540  0.00  0.00     0.268 A 
ATOM      9  S1  <0> d          30.187  67.085 -25.926  0.00  0.00    -0.023 SA
ATOM     10  N1  <0> d          29.404  68.871 -24.426  0.00  0.00    -0.270 N 
ATOM     11  O1  <0> d          27.916  69.973 -25.635  0.00  0.00    -0.266 OA
ATOM     12  C17 <0> d          30.298  67.863 -24.322  0.00  0.00     0.294 A 
ATOM     13  O3  <0> d          30.997  67.559 -23.374  0.00  0.00    -0.259 OA
BRANCH  10  14
ATOM     14  C2  <0> d          29.189  69.765 -23.284  0.00  0.00     0.088 C 
ATOM     15  C1  <0> d          28.247  69.095 -22.282  0.00  0.00     0.032 C 
ATOM     16  C3  <0> d          30.529  70.059 -22.607  0.00  0.00     0.032 C 
ENDBRANCH  10  14
ENDBRANCH   1   6
BRANCH   4  17
ATOM     17  C11 <0> d          23.847  70.062 -28.042  0.00  0.00    -0.001 A 
ATOM     18  C16 <0> d          23.268  71.324 -28.191  0.00  0.00     0.039 A 
ATOM     19  C15 <0> d          21.913  71.486 -27.990  0.00  0.00     0.052 A 
ATOM     20  C14 <0> d          21.126  70.399 -27.642  0.00  0.00     0.032 A 
ATOM     21 Cl1  <0> d          21.190  73.054 -28.176  0.00  0.00    -0.083 Cl
ATOM     22  C13 <0> d          21.695  69.146 -27.492  0.00  0.00     0.022 A 
ATOM     23 Br1  <0> d          19.268  70.629 -27.377  0.00  0.00    -0.049 Br
ATOM     24  C12 <0> d          23.048  68.971 -27.691  0.00  0.00     0.016 A 
ENDBRANCH   4  17
TORSDOF 3
ENDMDL
MODEL 6
REMARK VINA RESULT:      -6.7     18.004     19.513
REMARK  3 active torsions:
REMARK  status: ('A' for Active; 'I' for Inactive)
REMARK    1  A    between atoms: C2_2  and  N1_4 
REMARK    2  A    between atoms: C6_8  and  C7_9 
REMARK    3  A    between atoms: C10_12  and  C11_14 
ROOT
ATOM      1  C7  <0> d          31.740  86.108 -17.329  0.00  0.00     0.077 A 
ATOM      2  C8  <0> d          33.021  85.643 -17.089  0.00  0.00     0.040 A 
ATOM      3  C9  <0> d          33.381  86.093 -15.815  0.00  0.00     0.041 A 
ATOM      4  C10 <0> d          32.314  86.813 -15.326  0.00  0.00     0.086 A 
ATOM      5  O2  <0> d          31.334  86.806 -16.248  0.00  0.00    -0.310 OA
ENDROOT
BRANCH   1   6
ATOM      6  C6  <0> d          30.986  85.884 -18.501  0.00  0.00     0.061 C 
ATOM      7  C5  <0> d          31.184  86.670 -19.599  0.00  0.00     0.081 A 
ATOM      8  C4  <0> d          31.988  87.841 -19.747  0.00  0.00     0.268 A 
ATOM      9  S1  <0> d          30.512  86.507 -21.249  0.00  0.00    -0.023 SA
ATOM     10  N1  <0> d          32.014  88.430 -20.929  0.00  0.00    -0.270 N 
ATOM     11  O1  <0> d          32.630  88.282 -18.811  0.00  0.00    -0.266 OA
ATOM     12  C17 <0> d          31.300  87.940 -21.967  0.00  0.00     0.294 A 
ATOM     13  O3  <0> d          31.220  88.365 -23.105  0.00  0.00    -0.259 OA
BRANCH  10  14
ATOM     14  C2  <0> d          32.828  89.634 -21.117  0.00  0.00     0.088 C 
ATOM     15  C1  <0> d          33.927  89.351 -22.143  0.00  0.00     0.032 C 
ATOM     16  C3  <0> d          31.941  90.776 -21.621  0.00  0.00     0.032 C 
ENDBRANCH  10  14
ENDBRANCH   1   6
BRANCH   4  17
ATOM     17  C11 <0> d          32.254  87.475 -14.009  0.00  0.00    -0.001 A 
ATOM     18  C16 <0> d          31.964  86.732 -12.863  0.00  0.00     0.039 A 
ATOM     19  C15 <0> d          31.909  87.357 -11.634  0.00  0.00     0.052 A 
ATOM     20  C14 <0> d          32.141  88.720 -11.536  0.00  0.00     0.032 A 
ATOM     21 Cl1  <0> d          31.550  86.435 -10.207  0.00  0.00    -0.083 Cl
ATOM     22  C13 <0> d          32.428  89.462 -12.669  0.00  0.00     0.022 A 
ATOM     23 Br1  <0> d          32.072  89.568  -9.848  0.00  0.00    -0.049 Br
ATOM     24  C12 <0> d          32.487  88.849 -13.903  0.00  0.00     0.016 A 
ENDBRANCH   4  17
TORSDOF 3
ENDMDL
MODEL 7
REMARK VINA RESULT:      -6.7      4.467      6.457
REMARK  3 active torsions:
REMARK  status: ('A' for Active; 'I' for Inactive)
REMARK    1  A    between atoms: C2_2  and  N1_4 
REMARK    2  A    between atoms: C6_8  and  C7_9 
REMARK    3  A    between atoms: C10_12  and  C11_14 
ROOT
ATOM      1  C7  <0> d          25.543  69.071 -27.394  0.00  0.00     0.077 A 
ATOM      2  C8  <0> d          26.510  68.919 -28.372  0.00  0.00     0.040 A 
ATOM      3  C9  <0> d          27.747  68.928 -27.721  0.00  0.00     0.041 A 
ATOM      4  C10 <0> d          27.494  69.085 -26.377  0.00  0.00     0.086 A 
ATOM      5  O2  <0> d          26.162  69.163 -26.198  0.00  0.00    -0.310 OA
ENDROOT
BRANCH   1   6
ATOM      6  C6  <0> d          24.149  69.115 -27.609  0.00  0.00     0.061 C 
ATOM      7  C5  <0> d          23.500  70.316 -27.633  0.00  0.00     0.081 A 
ATOM      8  C4  <0> d          23.994  71.622 -27.335  0.00  0.00     0.268 A 
ATOM      9  S1  <0> d          21.801  70.682 -28.053  0.00  0.00    -0.023 SA
ATOM     10  N1  <0> d          23.157  72.639 -27.433  0.00  0.00    -0.270 N 
ATOM     11  O1  <0> d          25.154  71.793 -27.002  0.00  0.00    -0.266 OA
ATOM     12  C17 <0> d          21.871  72.449 -27.802  0.00  0.00     0.294 A 
ATOM     13  O3  <0> d          20.986  73.274 -27.936  0.00  0.00    -0.259 OA
BRANCH  10  14
ATOM     14  C2  <0> d          23.629  73.994 -27.135  0.00  0.00     0.088 C 
ATOM     15  C1  <0> d          23.240  74.933 -28.278  0.00  0.00     0.032 C 
ATOM     16  C3  <0> d          22.990  74.483 -25.833  0.00  0.00     0.032 C 
ENDBRANCH  10  14
ENDBRANCH   1   6
BRANCH   4  17
ATOM     17  C11 <0> d          28.512  69.149 -25.311  0.00  0.00    -0.001 A 
ATOM     18  C16 <0> d          29.644  68.334 -25.372  0.00  0.00     0.039 A 
ATOM     19  C15 <0> d          30.592  68.400 -24.371  0.00  0.00     0.052 A 
ATOM     20  C14 <0> d          30.422  69.272 -23.307  0.00  0.00     0.032 A 
ATOM     21 Cl1  <0> d          32.002  67.389 -24.445  0.00  0.00    -0.083 Cl
ATOM     22  C13 <0> d          29.301  70.081 -23.241  0.00  0.00     0.022 A 
ATOM     23 Br1  <0> d          31.730  69.361 -21.945  0.00  0.00    -0.049 Br
ATOM     24  C12 <0> d          28.346  70.026 -24.236  0.00  0.00     0.016 A 
ENDBRANCH   4  17
TORSDOF 3
ENDMDL
MODEL 8
REMARK VINA RESULT:      -6.6     24.781     27.062
REMARK  3 active torsions:
REMARK  status: ('A' for Active; 'I' for Inactive)
REMARK    1  A    between atoms: C2_2  and  N1_4 
REMARK    2  A    between atoms: C6_8  and  C7_9 
REMARK    3  A    between atoms: C10_12  and  C11_14 
ROOT
ATOM      1  C7  <0> d           9.517  51.679 -26.133  0.00  0.00     0.077 A 
ATOM      2  C8  <0> d          10.366  51.641 -25.042  0.00  0.00     0.040 A 
ATOM      3  C9  <0> d          11.417  50.782 -25.378  0.00  0.00     0.041 A 
ATOM      4  C10 <0> d          11.172  50.328 -26.655  0.00  0.00     0.086 A 
ATOM      5  O2  <0> d          10.028  50.884 -27.096  0.00  0.00    -0.310 OA
ENDROOT
BRANCH   1   6
ATOM      6  C6  <0> d           8.324  52.428 -26.226  0.00  0.00     0.061 C 
ATOM      7  C5  <0> d           8.294  53.575 -26.966  0.00  0.00     0.081 A 
ATOM      8  C4  <0> d           9.363  54.269 -27.610  0.00  0.00     0.268 A 
ATOM      9  S1  <0> d           6.904  54.612 -27.399  0.00  0.00    -0.023 SA
ATOM     10  N1  <0> d           9.073  55.373 -28.276  0.00  0.00    -0.270 N 
ATOM     11  O1  <0> d          10.507  53.854 -27.548  0.00  0.00    -0.266 OA
ATOM     12  C17 <0> d           7.804  55.832 -28.344  0.00  0.00     0.294 A 
ATOM     13  O3  <0> d           7.381  56.823 -28.910  0.00  0.00    -0.259 OA
BRANCH  10  14
ATOM     14  C2  <0> d          10.145  56.111 -28.950  0.00  0.00     0.088 C 
ATOM     15  C1  <0> d           9.806  56.259 -30.434  0.00  0.00     0.032 C 
ATOM     16  C3  <0> d          10.285  57.498 -28.317  0.00  0.00     0.032 C 
ENDBRANCH  10  14
ENDBRANCH   1   6
BRANCH   4  17
ATOM     17  C11 <0> d          12.026  49.395 -27.416  0.00  0.00    -0.001 A 
ATOM     18  C16 <0> d          12.480  49.741 -28.690  0.00  0.00     0.039 A 
ATOM     19  C15 <0> d          13.278  48.864 -29.396  0.00  0.00     0.052 A 
ATOM     20  C14 <0> d          13.629  47.642 -28.842  0.00  0.00     0.032 A 
ATOM     21 Cl1  <0> d          13.846  49.291 -30.980  0.00  0.00    -0.083 Cl
ATOM     22  C13 <0> d          13.181  47.295 -27.580  0.00  0.00     0.022 A 
ATOM     23 Br1  <0> d          14.729  46.450 -29.813  0.00  0.00    -0.049 Br
ATOM     24  C12 <0> d          12.382  48.163 -26.864  0.00  0.00     0.016 A 
ENDBRANCH   4  17
TORSDOF 3
ENDMDL
MODEL 9
REMARK VINA RESULT:      -6.4     18.207     19.881
REMARK  3 active torsions:
REMARK  status: ('A' for Active; 'I' for Inactive)
REMARK    1  A    between atoms: C2_2  and  N1_4 
REMARK    2  A    between atoms: C6_8  and  C7_9 
REMARK    3  A    between atoms: C10_12  and  C11_14 
ROOT
ATOM      1  C7  <0> d          31.419  87.015 -19.243  0.00  0.00     0.077 A 
ATOM      2  C8  <0> d          32.329  85.989 -19.057  0.00  0.00     0.040 A 
ATOM      3  C9  <0> d          32.709  86.027 -17.712  0.00  0.00     0.041 A 
ATOM      4  C10 <0> d          32.023  87.069 -17.129  0.00  0.00     0.086 A 
ATOM      5  O2  <0> d          31.247  87.647 -18.064  0.00  0.00    -0.310 OA
ENDROOT
BRANCH   1   6
ATOM      6  C6  <0> d          30.777  87.339 -20.457  0.00  0.00     0.061 C 
ATOM      7  C5  <0> d          31.327  88.267 -21.293  0.00  0.00     0.081 A 
ATOM      8  C4  <0> d          32.453  89.121 -21.089  0.00  0.00     0.268 A 
ATOM      9  S1  <0> d          30.837  88.740 -22.947  0.00  0.00    -0.023 SA
ATOM     10  N1  <0> d          32.792  89.945 -22.064  0.00  0.00    -0.270 N 
ATOM     11  O1  <0> d          33.082  89.090 -20.046  0.00  0.00    -0.266 OA
ATOM     12  C17 <0> d          32.093  89.980 -23.221  0.00  0.00     0.294 A 
ATOM     13  O3  <0> d          32.278  90.676 -24.202  0.00  0.00    -0.259 OA
BRANCH  10  14
ATOM     14  C2  <0> d          33.943  90.836 -21.889  0.00  0.00     0.088 C 
ATOM     15  C1  <0> d          33.686  91.775 -20.709  0.00  0.00     0.032 C 
ATOM     16  C3  <0> d          35.196  90.002 -21.615  0.00  0.00     0.032 C 
ENDBRANCH  10  14
ENDBRANCH   1   6
BRANCH   4  17
ATOM     17  C11 <0> d          32.117  87.477 -15.714  0.00  0.00    -0.001 A 
ATOM     18  C16 <0> d          31.900  86.543 -14.699  0.00  0.00     0.039 A 
ATOM     19  C15 <0> d          31.990  86.932 -13.378  0.00  0.00     0.052 A 
ATOM     20  C14 <0> d          32.295  88.246 -13.058  0.00  0.00     0.032 A 
ATOM     21 Cl1  <0> d          31.721  85.773 -12.113  0.00  0.00    -0.083 Cl
ATOM     22  C13 <0> d          32.511  89.176 -14.061  0.00  0.00     0.022 A 
ATOM     23 Br1  <0> d          32.424  88.768 -11.245  0.00  0.00    -0.049 Br
ATOM     24  C12 <0> d          32.425  88.800 -15.385  0.00  0.00     0.016 A 
ENDBRANCH   4  17
TORSDOF 3
ENDMDL
MODEL 10
REMARK VINA RESULT:      -6.2      4.649      6.573
REMARK  3 active torsions:
REMARK  status: ('A' for Active; 'I' for Inactive)
REMARK    1  A    between atoms: C2_2  and  N1_4 
REMARK    2  A    between atoms: C6_8  and  C7_9 
REMARK    3  A    between atoms: C10_12  and  C11_14 
ROOT
ATOM      1  C7  <0> d          30.818  73.025 -19.501  0.00  0.00     0.077 A 
ATOM      2  C8  <0> d          30.977  72.826 -18.141  0.00  0.00     0.040 A 
ATOM      3  C9  <0> d          30.443  73.950 -17.504  0.00  0.00     0.041 A 
ATOM      4  C10 <0> d          29.982  74.791 -18.491  0.00  0.00     0.086 A 
ATOM      5  O2  <0> d          30.210  74.215 -19.686  0.00  0.00    -0.310 OA
ENDROOT
BRANCH   1   6
ATOM      6  C6  <0> d          31.218  72.133 -20.518  0.00  0.00     0.061 C 
ATOM      7  C5  <0> d          30.332  71.221 -21.013  0.00  0.00     0.081 A 
ATOM      8  C4  <0> d          29.012  70.902 -20.569  0.00  0.00     0.268 A 
ATOM      9  S1  <0> d          30.503  70.106 -22.401  0.00  0.00    -0.023 SA
ATOM     10  N1  <0> d          28.346  69.968 -21.224  0.00  0.00    -0.270 N 
ATOM     11  O1  <0> d          28.517  71.475 -19.615  0.00  0.00    -0.266 OA
ATOM     12  C17 <0> d          28.897  69.333 -22.282  0.00  0.00     0.294 A 
ATOM     13  O3  <0> d          28.417  68.459 -22.981  0.00  0.00    -0.259 OA
BRANCH  10  14
ATOM     14  C2  <0> d          26.990  69.615 -20.796  0.00  0.00     0.088 C 
ATOM     15  C1  <0> d          26.037  69.715 -21.988  0.00  0.00     0.032 C 
ATOM     16  C3  <0> d          26.982  68.183 -20.256  0.00  0.00     0.032 C 
ENDBRANCH  10  14
ENDBRANCH   1   6
BRANCH   4  17
ATOM     17  C11 <0> d          29.337  76.101 -18.275  0.00  0.00    -0.001 A 
ATOM     18  C16 <0> d          27.975  76.171 -17.974  0.00  0.00     0.039 A 
ATOM     19  C15 <0> d          27.379  77.400 -17.773  0.00  0.00     0.052 A 
ATOM     20  C14 <0> d          28.129  78.561 -17.869  0.00  0.00     0.032 A 
ATOM     21 Cl1  <0> d          25.686  77.490 -17.399  0.00  0.00    -0.083 Cl
ATOM     22  C13 <0> d          29.479  78.497 -18.167  0.00  0.00     0.022 A 
ATOM     23 Br1  <0> d          27.306  80.239 -17.584  0.00  0.00    -0.049 Br
ATOM     24  C12 <0> d          30.087  77.275 -18.370  0.00  0.00     0.016 A 
ENDBRANCH   4  17
TORSDOF 3
ENDMDL
