MODEL 1
REMARK VINA RESULT:      -7.2      0.000      0.000
REMARK  4 active torsions:
REMARK  status: ('A' for Active; 'I' for Inactive)
REMARK    1  A    between atoms: C4_4  and  C7_7 
REMARK    2  A    between atoms: C7_7  and  C8_8 
REMARK    3  A    between atoms: N1_11  and  S1_12 
REMARK    4  A    between atoms: S1_12  and  C11_15 
ROOT
ATOM      1  C8  <0> d          28.744  68.657 -23.714  0.00  0.00     0.093 A 
ATOM      2  C9  <0> d          26.996  69.286 -22.427  0.00  0.00     0.142 A 
ATOM      3  C10 <0> d          26.687  69.673 -23.888  0.00  0.00     0.162 A 
ATOM      4  N1  <0> d          27.887  69.219 -24.613  0.00  0.00    -0.259 N 
ATOM      5  N2  <0> d          28.328  68.662 -22.498  0.00  0.00    -0.377 N 
ATOM      6  H16 <0> d          28.847  68.288 -21.695  0.00  0.00     0.160 HD
ENDROOT
BRANCH   4   7
ATOM      7  S1  <0> d          28.147  69.361 -26.242  0.00  0.00     0.266 S 
ATOM      8  O1  <0> d          28.373  68.047 -26.733  0.00  0.00    -0.200 OA
ATOM      9  O2  <0> d          29.089  70.411 -26.413  0.00  0.00    -0.200 OA
BRANCH   7  10
ATOM     10  C11 <0> d          26.638  69.916 -26.963  0.00  0.00     0.080 A 
ATOM     11  C16 <0> d          25.631  69.010 -27.243  0.00  0.00     0.026 A 
ATOM     12  C15 <0> d          24.448  69.444 -27.809  0.00  0.00     0.020 A 
ATOM     13  C14 <0> d          24.269  70.785 -28.096  0.00  0.00     0.006 A 
ATOM     14  C13 <0> d          25.277  71.691 -27.817  0.00  0.00     0.020 A 
ATOM     15  I1  <0> d          22.476  71.444 -28.954  0.00  0.00    -0.045 I 
ATOM     16  C12 <0> d          26.460  71.256 -27.250  0.00  0.00     0.026 A 
ENDBRANCH   7  10
ENDBRANCH   4   7
BRANCH   1  17
ATOM     17  C7  <0> d          30.077  68.079 -24.112  0.00  0.00     0.115 C 
BRANCH  17  18
ATOM     18  C4  <0> d          31.184  68.912 -23.519  0.00  0.00    -0.051 A 
ATOM     19  C3  <0> d          30.888  69.892 -22.589  0.00  0.00     0.007 A 
ATOM     20  C2  <0> d          31.903  70.656 -22.045  0.00  0.00     0.001 A 
ATOM     21  C1  <0> d          33.212  70.442 -22.430  0.00  0.00     0.000 A 
ATOM     22  C6  <0> d          33.508  69.463 -23.360  0.00  0.00     0.001 A 
ATOM     23  C5  <0> d          32.495  68.695 -23.901  0.00  0.00     0.007 A 
ENDBRANCH  17  18
ENDBRANCH   1  17
TORSDOF 4
ENDMDL
MODEL 2
REMARK VINA RESULT:      -7.0     21.171     22.961
REMARK  4 active torsions:
REMARK  status: ('A' for Active; 'I' for Inactive)
REMARK    1  A    between atoms: C4_4  and  C7_7 
REMARK    2  A    between atoms: C7_7  and  C8_8 
REMARK    3  A    between atoms: N1_11  and  S1_12 
REMARK    4  A    between atoms: S1_12  and  C11_15 
ROOT
ATOM      1  C8  <0> d          29.739  60.169  -6.747  0.00  0.00     0.093 A 
ATOM      2  C9  <0> d          28.866  61.657  -5.288  0.00  0.00     0.142 A 
ATOM      3  C10 <0> d          27.863  60.497  -5.457  0.00  0.00     0.162 A 
ATOM      4  N1  <0> d          28.539  59.611  -6.420  0.00  0.00    -0.259 N 
ATOM      5  N2  <0> d          29.985  61.291  -6.172  0.00  0.00    -0.377 N 
ATOM      6  H16 <0> d          30.836  61.850  -6.309  0.00  0.00     0.160 HD
ENDROOT
BRANCH   4   7
ATOM      7  S1  <0> d          27.946  58.177  -7.001  0.00  0.00     0.266 S 
ATOM      8  O1  <0> d          28.324  58.105  -8.368  0.00  0.00    -0.200 OA
ATOM      9  O2  <0> d          26.591  58.099  -6.579  0.00  0.00    -0.200 OA
BRANCH   7  10
ATOM     10  C11 <0> d          28.808  56.884  -6.170  0.00  0.00     0.080 A 
ATOM     11  C16 <0> d          29.163  57.032  -4.842  0.00  0.00     0.026 A 
ATOM     12  C15 <0> d          29.839  56.017  -4.191  0.00  0.00     0.020 A 
ATOM     13  C14 <0> d          30.161  54.855  -4.866  0.00  0.00     0.006 A 
ATOM     14  C13 <0> d          29.806  54.708  -6.196  0.00  0.00     0.020 A 
ATOM     15  I1  <0> d          31.186  53.318  -3.880  0.00  0.00    -0.045 I 
ATOM     16  C12 <0> d          29.130  55.722  -6.847  0.00  0.00     0.026 A 
ENDBRANCH   7  10
ENDBRANCH   4   7
BRANCH   1  17
ATOM     17  C7  <0> d          30.701  59.523  -7.711  0.00  0.00     0.115 C 
BRANCH  17  18
ATOM     18  C4  <0> d          31.647  58.628  -6.952  0.00  0.00    -0.051 A 
ATOM     19  C3  <0> d          32.112  57.463  -7.533  0.00  0.00     0.007 A 
ATOM     20  C2  <0> d          32.979  56.642  -6.837  0.00  0.00     0.001 A 
ATOM     21  C1  <0> d          33.381  56.986  -5.561  0.00  0.00     0.000 A 
ATOM     22  C6  <0> d          32.917  58.151  -4.980  0.00  0.00     0.001 A 
ATOM     23  C5  <0> d          32.054  58.974  -5.676  0.00  0.00     0.007 A 
ENDBRANCH  17  18
ENDBRANCH   1  17
TORSDOF 4
ENDMDL
MODEL 3
REMARK VINA RESULT:      -6.9     20.911     22.698
REMARK  4 active torsions:
REMARK  status: ('A' for Active; 'I' for Inactive)
REMARK    1  A    between atoms: C4_4  and  C7_7 
REMARK    2  A    between atoms: C7_7  and  C8_8 
REMARK    3  A    between atoms: N1_11  and  S1_12 
REMARK    4  A    between atoms: S1_12  and  C11_15 
ROOT
ATOM      1  C8  <0> d          28.587  59.845  -7.455  0.00  0.00     0.093 A 
ATOM      2  C9  <0> d          27.652  59.935  -9.510  0.00  0.00     0.142 A 
ATOM      3  C10 <0> d          26.793  59.008  -8.626  0.00  0.00     0.162 A 
ATOM      4  N1  <0> d          27.501  59.031  -7.334  0.00  0.00    -0.259 N 
ATOM      5  N2  <0> d          28.739  60.372  -8.617  0.00  0.00    -0.377 N 
ATOM      6  H16 <0> d          29.504  61.002  -8.884  0.00  0.00     0.160 HD
ENDROOT
BRANCH   4   7
ATOM      7  S1  <0> d          27.049  58.213  -5.966  0.00  0.00     0.266 S 
ATOM      8  O1  <0> d          25.787  57.624  -6.243  0.00  0.00    -0.200 OA
ATOM      9  O2  <0> d          27.253  59.102  -4.876  0.00  0.00    -0.200 OA
BRANCH   7  10
ATOM     10  C11 <0> d          28.188  56.885  -5.754  0.00  0.00     0.080 A 
ATOM     11  C16 <0> d          28.575  56.126  -6.842  0.00  0.00     0.026 A 
ATOM     12  C15 <0> d          29.469  55.085  -6.676  0.00  0.00     0.020 A 
ATOM     13  C14 <0> d          29.976  54.802  -5.422  0.00  0.00     0.006 A 
ATOM     14  C13 <0> d          29.588  55.561  -4.332  0.00  0.00     0.020 A 
ATOM     15  I1  <0> d          31.329  53.223  -5.169  0.00  0.00    -0.045 I 
ATOM     16  C12 <0> d          28.695  56.603  -4.499  0.00  0.00     0.026 A 
ENDBRANCH   7  10
ENDBRANCH   4   7
BRANCH   1  17
ATOM     17  C7  <0> d          29.539  60.105  -6.316  0.00  0.00     0.115 C 
BRANCH  17  18
ATOM     18  C4  <0> d          30.682  59.125  -6.383  0.00  0.00    -0.051 A 
ATOM     19  C3  <0> d          31.365  58.780  -5.231  0.00  0.00     0.007 A 
ATOM     20  C2  <0> d          32.413  57.881  -5.292  0.00  0.00     0.001 A 
ATOM     21  C1  <0> d          32.778  57.327  -6.504  0.00  0.00     0.000 A 
ATOM     22  C6  <0> d          32.096  57.671  -7.655  0.00  0.00     0.001 A 
ATOM     23  C5  <0> d          31.045  58.566  -7.594  0.00  0.00     0.007 A 
ENDBRANCH  17  18
ENDBRANCH   1  17
TORSDOF 4
ENDMDL
MODEL 4
REMARK VINA RESULT:      -6.6     16.784     18.292
REMARK  4 active torsions:
REMARK  status: ('A' for Active; 'I' for Inactive)
REMARK    1  A    between atoms: C4_4  and  C7_7 
REMARK    2  A    between atoms: C7_7  and  C8_8 
REMARK    3  A    between atoms: N1_11  and  S1_12 
REMARK    4  A    between atoms: S1_12  and  C11_15 
ROOT
ATOM      1  C8  <0> d          22.221  56.104 -32.497  0.00  0.00     0.093 A 
ATOM      2  C9  <0> d          20.350  56.328 -33.744  0.00  0.00     0.142 A 
ATOM      3  C10 <0> d          19.931  56.056 -32.285  0.00  0.00     0.162 A 
ATOM      4  N1  <0> d          21.221  55.928 -31.587  0.00  0.00    -0.259 N 
ATOM      5  N2  <0> d          21.822  56.322 -33.699  0.00  0.00    -0.377 N 
ATOM      6  H16 <0> d          22.438  56.468 -34.507  0.00  0.00     0.160 HD
ENDROOT
BRANCH   4   7
ATOM      7  S1  <0> d          21.423  55.629 -29.970  0.00  0.00     0.266 S 
ATOM      8  O1  <0> d          20.129  55.389 -29.437  0.00  0.00    -0.200 OA
ATOM      9  O2  <0> d          22.275  56.652 -29.472  0.00  0.00    -0.200 OA
BRANCH   7  10
ATOM     10  C11 <0> d          22.316  54.116 -29.828  0.00  0.00     0.080 A 
ATOM     11  C16 <0> d          23.483  54.069 -29.088  0.00  0.00     0.026 A 
ATOM     12  C15 <0> d          24.183  52.883 -28.976  0.00  0.00     0.020 A 
ATOM     13  C14 <0> d          23.719  51.744 -29.606  0.00  0.00     0.006 A 
ATOM     14  C13 <0> d          22.551  51.791 -30.348  0.00  0.00     0.020 A 
ATOM     15  I1  <0> d          24.780  49.946 -29.439  0.00  0.00    -0.045 I 
ATOM     16  C12 <0> d          21.851  52.978 -30.458  0.00  0.00     0.026 A 
ENDBRANCH   7  10
ENDBRANCH   4   7
BRANCH   1  17
ATOM     17  C7  <0> d          23.680  56.044 -32.125  0.00  0.00     0.115 C 
BRANCH  17  18
ATOM     18  C4  <0> d          24.395  55.090 -33.047  0.00  0.00    -0.051 A 
ATOM     19  C3  <0> d          24.798  55.514 -34.301  0.00  0.00     0.007 A 
ATOM     20  C2  <0> d          25.453  54.639 -35.147  0.00  0.00     0.001 A 
ATOM     21  C1  <0> d          25.705  53.343 -34.742  0.00  0.00     0.000 A 
ATOM     22  C6  <0> d          25.302  52.920 -33.489  0.00  0.00     0.001 A 
ATOM     23  C5  <0> d          24.652  53.794 -32.640  0.00  0.00     0.007 A 
ENDBRANCH  17  18
ENDBRANCH   1  17
TORSDOF 4
ENDMDL
MODEL 5
REMARK VINA RESULT:      -6.6     23.586     26.293
REMARK  4 active torsions:
REMARK  status: ('A' for Active; 'I' for Inactive)
REMARK    1  A    between atoms: C4_4  and  C7_7 
REMARK    2  A    between atoms: C7_7  and  C8_8 
REMARK    3  A    between atoms: N1_11  and  S1_12 
REMARK    4  A    between atoms: S1_12  and  C11_15 
ROOT
ATOM      1  C8  <0> d           7.478  54.145 -28.085  0.00  0.00     0.093 A 
ATOM      2  C9  <0> d           6.337  53.635 -29.968  0.00  0.00     0.142 A 
ATOM      3  C10 <0> d           6.117  52.502 -28.945  0.00  0.00     0.162 A 
ATOM      4  N1  <0> d           6.903  52.947 -27.782  0.00  0.00    -0.259 N 
ATOM      5  N2  <0> d           7.218  54.583 -29.265  0.00  0.00    -0.377 N 
ATOM      6  H16 <0> d           7.573  55.462 -29.659  0.00  0.00     0.160 HD
ENDROOT
BRANCH   4   7
ATOM      7  S1  <0> d           7.056  52.133 -26.347  0.00  0.00     0.266 S 
ATOM      8  O1  <0> d           5.949  51.248 -26.262  0.00  0.00    -0.200 OA
ATOM      9  O2  <0> d           7.328  53.112 -25.353  0.00  0.00    -0.200 OA
BRANCH   7  10
ATOM     10  C11 <0> d           8.498  51.127 -26.471  0.00  0.00     0.080 A 
ATOM     11  C16 <0> d           8.479  49.985 -27.249  0.00  0.00     0.026 A 
ATOM     12  C15 <0> d           9.609  49.196 -27.347  0.00  0.00     0.020 A 
ATOM     13  C14 <0> d          10.759  49.548 -26.665  0.00  0.00     0.006 A 
ATOM     14  C13 <0> d          10.778  50.690 -25.885  0.00  0.00     0.020 A 
ATOM     15  I1  <0> d          12.472  48.351 -26.811  0.00  0.00    -0.045 I 
ATOM     16  C12 <0> d           9.647  51.480 -25.789  0.00  0.00     0.026 A 
ENDBRANCH   7  10
ENDBRANCH   4   7
BRANCH   1  17
ATOM     17  C7  <0> d           8.352  54.897 -27.115  0.00  0.00     0.115 C 
BRANCH  17  18
ATOM     18  C4  <0> d           9.705  55.132 -27.736  0.00  0.00    -0.051 A 
ATOM     19  C3  <0> d          10.142  56.423 -27.972  0.00  0.00     0.007 A 
ATOM     20  C2  <0> d          11.383  56.639 -28.542  0.00  0.00     0.001 A 
ATOM     21  C1  <0> d          12.185  55.565 -28.877  0.00  0.00     0.000 A 
ATOM     22  C6  <0> d          11.749  54.275 -28.642  0.00  0.00     0.001 A 
ATOM     23  C5  <0> d          10.511  54.058 -28.067  0.00  0.00     0.007 A 
ENDBRANCH  17  18
ENDBRANCH   1  17
TORSDOF 4
ENDMDL
MODEL 6
REMARK VINA RESULT:      -6.6     24.548     26.904
REMARK  4 active torsions:
REMARK  status: ('A' for Active; 'I' for Inactive)
REMARK    1  A    between atoms: C4_4  and  C7_7 
REMARK    2  A    between atoms: C7_7  and  C8_8 
REMARK    3  A    between atoms: N1_11  and  S1_12 
REMARK    4  A    between atoms: S1_12  and  C11_15 
ROOT
ATOM      1  C8  <0> d          11.233  52.374 -26.634  0.00  0.00     0.093 A 
ATOM      2  C9  <0> d          11.919  53.986 -28.062  0.00  0.00     0.142 A 
ATOM      3  C10 <0> d          10.385  53.871 -28.162  0.00  0.00     0.162 A 
ATOM      4  N1  <0> d          10.068  52.801 -27.200  0.00  0.00    -0.259 N 
ATOM      5  N2  <0> d          12.288  52.972 -27.060  0.00  0.00    -0.377 N 
ATOM      6  H16 <0> d          13.245  52.771 -26.748  0.00  0.00     0.160 HD
ENDROOT
BRANCH   4   7
ATOM      7  S1  <0> d           8.554  52.221 -26.858  0.00  0.00     0.266 S 
ATOM      8  O1  <0> d           7.633  53.081 -27.512  0.00  0.00    -0.200 OA
ATOM      9  O2  <0> d           8.517  51.987 -25.457  0.00  0.00    -0.200 OA
BRANCH   7  10
ATOM     10  C11 <0> d           8.413  50.646 -27.636  0.00  0.00     0.080 A 
ATOM     11  C16 <0> d           7.562  49.691 -27.112  0.00  0.00     0.026 A 
ATOM     12  C15 <0> d           7.451  48.455 -27.721  0.00  0.00     0.020 A 
ATOM     13  C14 <0> d           8.191  48.173 -28.854  0.00  0.00     0.006 A 
ATOM     14  C13 <0> d           9.044  49.129 -29.378  0.00  0.00     0.020 A 
ATOM     15  I1  <0> d           8.024  46.301 -29.777  0.00  0.00    -0.045 I 
ATOM     16  C12 <0> d           9.154  50.365 -28.769  0.00  0.00     0.026 A 
ENDBRANCH   7  10
ENDBRANCH   4   7
BRANCH   1  17
ATOM     17  C7  <0> d          11.281  51.284 -25.595  0.00  0.00     0.115 C 
BRANCH  17  18
ATOM     18  C4  <0> d          11.608  49.971 -26.259  0.00  0.00    -0.051 A 
ATOM     19  C3  <0> d          10.948  48.819 -25.873  0.00  0.00     0.007 A 
ATOM     20  C2  <0> d          11.249  47.614 -26.483  0.00  0.00     0.001 A 
ATOM     21  C1  <0> d          12.209  47.563 -27.475  0.00  0.00     0.000 A 
ATOM     22  C6  <0> d          12.868  48.715 -27.860  0.00  0.00     0.001 A 
ATOM     23  C5  <0> d          12.565  49.919 -27.256  0.00  0.00     0.007 A 
ENDBRANCH  17  18
ENDBRANCH   1  17
TORSDOF 4
ENDMDL
MODEL 7
REMARK VINA RESULT:      -6.5     22.521     24.678
REMARK  4 active torsions:
REMARK  status: ('A' for Active; 'I' for Inactive)
REMARK    1  A    between atoms: C4_4  and  C7_7 
REMARK    2  A    between atoms: C7_7  and  C8_8 
REMARK    3  A    between atoms: N1_11  and  S1_12 
REMARK    4  A    between atoms: S1_12  and  C11_15 
ROOT
ATOM      1  C8  <0> d          26.659  57.604  -6.743  0.00  0.00     0.093 A 
ATOM      2  C9  <0> d          27.729  58.536  -8.502  0.00  0.00     0.142 A 
ATOM      3  C10 <0> d          28.500  57.268  -8.081  0.00  0.00     0.162 A 
ATOM      4  N1  <0> d          27.715  56.764  -6.942  0.00  0.00    -0.259 N 
ATOM      5  N2  <0> d          26.603  58.598  -7.555  0.00  0.00    -0.377 N 
ATOM      6  H16 <0> d          25.881  59.329  -7.544  0.00  0.00     0.160 HD
ENDROOT
BRANCH   4   7
ATOM      7  S1  <0> d          28.052  55.405  -6.057  0.00  0.00     0.266 S 
ATOM      8  O1  <0> d          29.216  54.826  -6.629  0.00  0.00    -0.200 OA
ATOM      9  O2  <0> d          26.830  54.692  -5.928  0.00  0.00    -0.200 OA
BRANCH   7  10
ATOM     10  C11 <0> d          28.499  55.937  -4.437  0.00  0.00     0.080 A 
ATOM     11  C16 <0> d          29.431  56.944  -4.273  0.00  0.00     0.026 A 
ATOM     12  C15 <0> d          29.782  57.362  -3.003  0.00  0.00     0.020 A 
ATOM     13  C14 <0> d          29.201  56.772  -1.896  0.00  0.00     0.006 A 
ATOM     14  C13 <0> d          28.269  55.763  -2.060  0.00  0.00     0.020 A 
ATOM     15  I1  <0> d          29.733  57.403   0.029  0.00  0.00    -0.045 I 
ATOM     16  C12 <0> d          27.918  55.346  -3.331  0.00  0.00     0.026 A 
ENDBRANCH   7  10
ENDBRANCH   4   7
BRANCH   1  17
ATOM     17  C7  <0> d          25.639  57.385  -5.656  0.00  0.00     0.115 C 
BRANCH  17  18
ATOM     18  C4  <0> d          25.994  58.228  -4.458  0.00  0.00    -0.051 A 
ATOM     19  C3  <0> d          25.456  57.930  -3.219  0.00  0.00     0.007 A 
ATOM     20  C2  <0> d          25.782  58.703  -2.120  0.00  0.00     0.001 A 
ATOM     21  C1  <0> d          26.645  59.773  -2.260  0.00  0.00     0.000 A 
ATOM     22  C6  <0> d          27.182  60.071  -3.498  0.00  0.00     0.001 A 
ATOM     23  C5  <0> d          26.862  59.296  -4.595  0.00  0.00     0.007 A 
ENDBRANCH  17  18
ENDBRANCH   1  17
TORSDOF 4
ENDMDL
MODEL 8
REMARK VINA RESULT:      -6.5     21.876     23.846
REMARK  4 active torsions:
REMARK  status: ('A' for Active; 'I' for Inactive)
REMARK    1  A    between atoms: C4_4  and  C7_7 
REMARK    2  A    between atoms: C7_7  and  C8_8 
REMARK    3  A    between atoms: N1_11  and  S1_12 
REMARK    4  A    between atoms: S1_12  and  C11_15 
ROOT
ATOM      1  C8  <0> d          26.092  57.641  -5.077  0.00  0.00     0.093 A 
ATOM      2  C9  <0> d          25.600  58.673  -3.127  0.00  0.00     0.142 A 
ATOM      3  C10 <0> d          26.553  59.582  -3.930  0.00  0.00     0.162 A 
ATOM      4  N1  <0> d          26.796  58.806  -5.159  0.00  0.00    -0.259 N 
ATOM      5  N2  <0> d          25.417  57.496  -3.993  0.00  0.00    -0.377 N 
ATOM      6  H16 <0> d          24.838  56.679  -3.764  0.00  0.00     0.160 HD
ENDROOT
BRANCH   4   7
ATOM      7  S1  <0> d          27.756  59.272  -6.426  0.00  0.00     0.266 S 
ATOM      8  O1  <0> d          28.036  60.651  -6.237  0.00  0.00    -0.200 OA
ATOM      9  O2  <0> d          27.140  58.773  -7.605  0.00  0.00    -0.200 OA
BRANCH   7  10
ATOM     10  C11 <0> d          29.289  58.419  -6.258  0.00  0.00     0.080 A 
ATOM     11  C16 <0> d          30.043  58.127  -7.379  0.00  0.00     0.026 A 
ATOM     12  C15 <0> d          31.246  57.458  -7.249  0.00  0.00     0.020 A 
ATOM     13  C14 <0> d          31.694  57.080  -5.997  0.00  0.00     0.006 A 
ATOM     14  C13 <0> d          30.939  57.371  -4.875  0.00  0.00     0.020 A 
ATOM     15  I1  <0> d          33.515  56.065  -5.799  0.00  0.00    -0.045 I 
ATOM     16  C12 <0> d          29.737  58.041  -5.006  0.00  0.00     0.026 A 
ENDBRANCH   7  10
ENDBRANCH   4   7
BRANCH   1  17
ATOM     17  C7  <0> d          26.105  56.604  -6.170  0.00  0.00     0.115 C 
BRANCH  17  18
ATOM     18  C4  <0> d          27.049  55.491  -5.794  0.00  0.00    -0.051 A 
ATOM     19  C3  <0> d          28.200  55.283  -6.532  0.00  0.00     0.007 A 
ATOM     20  C2  <0> d          29.066  54.261  -6.186  0.00  0.00     0.001 A 
ATOM     21  C1  <0> d          28.780  53.448  -5.107  0.00  0.00     0.000 A 
ATOM     22  C6  <0> d          27.629  53.656  -4.370  0.00  0.00     0.001 A 
ATOM     23  C5  <0> d          26.766  54.680  -4.711  0.00  0.00     0.007 A 
ENDBRANCH  17  18
ENDBRANCH   1  17
TORSDOF 4
ENDMDL
MODEL 9
REMARK VINA RESULT:      -6.5     21.862     23.791
REMARK  4 active torsions:
REMARK  status: ('A' for Active; 'I' for Inactive)
REMARK    1  A    between atoms: C4_4  and  C7_7 
REMARK    2  A    between atoms: C7_7  and  C8_8 
REMARK    3  A    between atoms: N1_11  and  S1_12 
REMARK    4  A    between atoms: S1_12  and  C11_15 
ROOT
ATOM      1  C8  <0> d          29.667  57.196  -7.320  0.00  0.00     0.093 A 
ATOM      2  C9  <0> d          31.647  58.263  -7.541  0.00  0.00     0.142 A 
ATOM      3  C10 <0> d          30.549  59.321  -7.304  0.00  0.00     0.162 A 
ATOM      4  N1  <0> d          29.326  58.509  -7.182  0.00  0.00    -0.259 N 
ATOM      5  N2  <0> d          30.918  56.984  -7.524  0.00  0.00    -0.377 N 
ATOM      6  H16 <0> d          31.345  56.060  -7.657  0.00  0.00     0.160 HD
ENDROOT
BRANCH   4   7
ATOM      7  S1  <0> d          27.798  59.091  -6.915  0.00  0.00     0.266 S 
ATOM      8  O1  <0> d          26.925  58.335  -7.742  0.00  0.00    -0.200 OA
ATOM      9  O2  <0> d          27.885  60.507  -6.990  0.00  0.00    -0.200 OA
BRANCH   7  10
ATOM     10  C11 <0> d          27.377  58.700  -5.249  0.00  0.00     0.080 A 
ATOM     11  C16 <0> d          26.135  58.167  -4.957  0.00  0.00     0.026 A 
ATOM     12  C15 <0> d          25.803  57.861  -3.651  0.00  0.00     0.020 A 
ATOM     13  C14 <0> d          26.714  58.087  -2.635  0.00  0.00     0.006 A 
ATOM     14  C13 <0> d          27.956  58.621  -2.927  0.00  0.00     0.020 A 
ATOM     15  I1  <0> d          26.212  57.624  -0.655  0.00  0.00    -0.045 I 
ATOM     16  C12 <0> d          28.287  58.927  -4.234  0.00  0.00     0.026 A 
ENDBRANCH   7  10
ENDBRANCH   4   7
BRANCH   1  17
ATOM     17  C7  <0> d          28.657  56.080  -7.243  0.00  0.00     0.115 C 
BRANCH  17  18
ATOM     18  C4  <0> d          28.577  55.572  -5.827  0.00  0.00    -0.051 A 
ATOM     19  C3  <0> d          29.648  55.746  -4.969  0.00  0.00     0.007 A 
ATOM     20  C2  <0> d          29.575  55.280  -3.670  0.00  0.00     0.001 A 
ATOM     21  C1  <0> d          28.434  54.638  -3.229  0.00  0.00     0.000 A 
ATOM     22  C6  <0> d          27.364  54.464  -4.086  0.00  0.00     0.001 A 
ATOM     23  C5  <0> d          27.433  54.934  -5.383  0.00  0.00     0.007 A 
ENDBRANCH  17  18
ENDBRANCH   1  17
TORSDOF 4
ENDMDL
MODEL 10
REMARK VINA RESULT:      -6.5     22.539     24.479
REMARK  4 active torsions:
REMARK  status: ('A' for Active; 'I' for Inactive)
REMARK    1  A    between atoms: C4_4  and  C7_7 
REMARK    2  A    between atoms: C7_7  and  C8_8 
REMARK    3  A    between atoms: N1_11  and  S1_12 
REMARK    4  A    between atoms: S1_12  and  C11_15 
ROOT
ATOM      1  C8  <0> d          30.490  56.198  -6.727  0.00  0.00     0.093 A 
ATOM      2  C9  <0> d          32.004  57.645  -7.576  0.00  0.00     0.142 A 
ATOM      3  C10 <0> d          32.211  57.567  -6.049  0.00  0.00     0.162 A 
ATOM      4  N1  <0> d          31.177  56.608  -5.622  0.00  0.00    -0.259 N 
ATOM      5  N2  <0> d          30.882  56.726  -7.830  0.00  0.00    -0.377 N 
ATOM      6  H16 <0> d          30.473  56.536  -8.753  0.00  0.00     0.160 HD
ENDROOT
BRANCH   4   7
ATOM      7  S1  <0> d          30.901  56.109  -4.068  0.00  0.00     0.266 S 
ATOM      8  O1  <0> d          31.949  56.647  -3.275  0.00  0.00    -0.200 OA
ATOM      9  O2  <0> d          30.632  54.715  -4.131  0.00  0.00    -0.200 OA
BRANCH   7  10
ATOM     10  C11 <0> d          29.413  56.884  -3.529  0.00  0.00     0.080 A 
ATOM     11  C16 <0> d          28.492  56.170  -2.784  0.00  0.00     0.026 A 
ATOM     12  C15 <0> d          27.325  56.778  -2.361  0.00  0.00     0.020 A 
ATOM     13  C14 <0> d          27.077  58.099  -2.683  0.00  0.00     0.006 A 
ATOM     14  C13 <0> d          27.998  58.813  -3.429  0.00  0.00     0.020 A 
ATOM     15  I1  <0> d          25.308  59.020  -2.044  0.00  0.00    -0.045 I 
ATOM     16  C12 <0> d          29.166  58.205  -3.851  0.00  0.00     0.026 A 
ENDBRANCH   7  10
ENDBRANCH   4   7
BRANCH   1  17
ATOM     17  C7  <0> d          29.358  55.206  -6.658  0.00  0.00     0.115 C 
BRANCH  17  18
ATOM     18  C4  <0> d          28.052  55.944  -6.518  0.00  0.00    -0.051 A 
ATOM     19  C3  <0> d          27.914  57.212  -7.054  0.00  0.00     0.007 A 
ATOM     20  C2  <0> d          26.715  57.889  -6.925  0.00  0.00     0.001 A 
ATOM     21  C1  <0> d          25.656  57.300  -6.261  0.00  0.00     0.000 A 
ATOM     22  C6  <0> d          25.795  56.033  -5.726  0.00  0.00     0.001 A 
ATOM     23  C5  <0> d          26.990  55.354  -5.858  0.00  0.00     0.007 A 
ENDBRANCH  17  18
ENDBRANCH   1  17
TORSDOF 4
ENDMDL
