MODEL 1
REMARK VINA RESULT:      -8.9      0.000      0.000
REMARK  3 active torsions:
REMARK  status: ('A' for Active; 'I' for Inactive)
REMARK    1  A    between atoms: C3_3  and  C7_8 
REMARK    2  A    between atoms: C9_11  and  C10_12 
REMARK    3  A    between atoms: C14_16  and  N2_18 
ROOT
ATOM      1  C7  <0> d          29.376  68.416 -25.396  0.00  0.00     0.184 A 
ATOM      2  N1  <0> d          29.993  69.008 -24.411  0.00  0.00    -0.218 NA
ATOM      3  C8  <0> d          31.124  68.308 -24.107  0.00  0.00     0.136 A 
ATOM      4  C9  <0> d          32.048  68.598 -23.128  0.00  0.00     0.049 C 
ATOM      5  C16 <0> d          31.150  67.176 -25.054  0.00  0.00     0.318 A 
ATOM      6  O3  <0> d          31.992  66.301 -25.137  0.00  0.00    -0.257 OA
ATOM      7  O4  <0> d          30.041  67.320 -25.810  0.00  0.00    -0.254 OA
ENDROOT
BRANCH   4   8
ATOM      8  C10 <0> d          31.923  69.831 -22.346  0.00  0.00    -0.031 A 
ATOM      9  C15 <0> d          32.658  70.970 -22.705  0.00  0.00     0.049 A 
ATOM     10  C14 <0> d          32.535  72.126 -21.965  0.00  0.00     0.121 A 
ATOM     11  C13 <0> d          31.688  72.164 -20.868  0.00  0.00     0.044 A 
ATOM     12  C12 <0> d          30.959  71.043 -20.506  0.00  0.00     0.022 A 
ATOM     13 Br2  <0> d          31.529  73.755 -19.859  0.00  0.00    -0.048 Br
ATOM     14  C11 <0> d          31.066  69.881 -21.239  0.00  0.00     0.013 A 
BRANCH  10  15
ATOM     15  N2  <0> d          33.309  73.330 -22.342  0.00  0.00    -0.114 N 
ATOM     16  O1  <0> d          32.728  74.352 -22.659  0.00  0.00    -0.532 OA
ATOM     17  O2  <0> d          34.527  73.298 -22.333  0.00  0.00    -0.532 OA
ENDBRANCH  10  15
ENDBRANCH   4   8
BRANCH   1  18
ATOM     18  C3  <0> d          28.111  68.893 -25.989  0.00  0.00     0.018 A 
ATOM     19  C2  <0> d          27.954  68.925 -27.376  0.00  0.00     0.016 A 
ATOM     20  C1  <0> d          26.771  69.377 -27.924  0.00  0.00     0.002 A 
ATOM     21  C6  <0> d          25.740  69.795 -27.102  0.00  0.00     0.019 A 
ATOM     22  C5  <0> d          25.886  69.762 -25.725  0.00  0.00     0.012 A 
ATOM     23  C4  <0> d          27.063  69.312 -25.165  0.00  0.00     0.035 A 
ATOM     24 Br1  <0> d          24.470  70.335 -24.611  0.00  0.00    -0.051 Br
ENDBRANCH   1  18
TORSDOF 3
ENDMDL
MODEL 2
REMARK VINA RESULT:      -8.8      2.015      2.321
REMARK  3 active torsions:
REMARK  status: ('A' for Active; 'I' for Inactive)
REMARK    1  A    between atoms: C3_3  and  C7_8 
REMARK    2  A    between atoms: C9_11  and  C10_12 
REMARK    3  A    between atoms: C14_16  and  N2_18 
ROOT
ATOM      1  C7  <0> d          29.179  68.442 -26.055  0.00  0.00     0.184 A 
ATOM      2  N1  <0> d          29.937  68.959 -25.128  0.00  0.00    -0.218 NA
ATOM      3  C8  <0> d          30.621  67.958 -24.502  0.00  0.00     0.136 A 
ATOM      4  C9  <0> d          31.521  68.082 -23.466  0.00  0.00     0.049 C 
ATOM      5  C16 <0> d          30.197  66.714 -25.173  0.00  0.00     0.318 A 
ATOM      6  O3  <0> d          30.567  65.580 -24.930  0.00  0.00    -0.257 OA
ATOM      7  O4  <0> d          29.311  67.103 -26.114  0.00  0.00    -0.254 OA
ENDROOT
BRANCH   4   8
ATOM      8  C10 <0> d          31.912  69.413 -22.992  0.00  0.00    -0.031 A 
ATOM      9  C15 <0> d          31.055  70.143 -22.156  0.00  0.00     0.049 A 
ATOM     10  C14 <0> d          31.429  71.393 -21.714  0.00  0.00     0.121 A 
ATOM     11  C13 <0> d          32.648  71.930 -22.095  0.00  0.00     0.044 A 
ATOM     12  C12 <0> d          33.501  71.216 -22.922  0.00  0.00     0.022 A 
ATOM     13 Br2  <0> d          33.151  73.648 -21.485  0.00  0.00    -0.048 Br
ATOM     14  C11 <0> d          33.145  69.963 -23.368  0.00  0.00     0.013 A 
BRANCH  10  15
ATOM     15  N2  <0> d          30.527  72.164 -20.831  0.00  0.00    -0.114 N 
ATOM     16  O1  <0> d          30.672  72.118 -19.623  0.00  0.00    -0.532 OA
ATOM     17  O2  <0> d          29.640  72.847 -21.313  0.00  0.00    -0.532 OA
ENDBRANCH  10  15
ENDBRANCH   4   8
BRANCH   1  18
ATOM     18  C3  <0> d          28.292  69.229 -26.935  0.00  0.00     0.018 A 
ATOM     19  C2  <0> d          27.874  68.704 -28.160  0.00  0.00     0.016 A 
ATOM     20  C1  <0> d          27.050  69.448 -28.980  0.00  0.00     0.002 A 
ATOM     21  C6  <0> d          26.634  70.707 -28.590  0.00  0.00     0.019 A 
ATOM     22  C5  <0> d          27.041  71.233 -27.375  0.00  0.00     0.012 A 
ATOM     23  C4  <0> d          27.864  70.500 -26.545  0.00  0.00     0.035 A 
ATOM     24 Br1  <0> d          26.466  72.956 -26.852  0.00  0.00    -0.051 Br
ENDBRANCH   1  18
TORSDOF 3
ENDMDL
MODEL 3
REMARK VINA RESULT:      -8.4      2.291      2.556
REMARK  3 active torsions:
REMARK  status: ('A' for Active; 'I' for Inactive)
REMARK    1  A    between atoms: C3_3  and  C7_8 
REMARK    2  A    between atoms: C9_11  and  C10_12 
REMARK    3  A    between atoms: C14_16  and  N2_18 
ROOT
ATOM      1  C7  <0> d          29.355  68.476 -25.248  0.00  0.00     0.184 A 
ATOM      2  N1  <0> d          29.881  69.042 -24.197  0.00  0.00    -0.218 NA
ATOM      3  C8  <0> d          31.051  68.412 -23.888  0.00  0.00     0.136 A 
ATOM      4  C9  <0> d          31.908  68.703 -22.850  0.00  0.00     0.049 C 
ATOM      5  C16 <0> d          31.208  67.357 -24.908  0.00  0.00     0.318 A 
ATOM      6  O3  <0> d          32.121  66.558 -25.010  0.00  0.00    -0.257 OA
ATOM      7  O4  <0> d          30.123  67.468 -25.703  0.00  0.00    -0.254 OA
ENDROOT
BRANCH   4   8
ATOM      8  C10 <0> d          31.651  69.864 -21.992  0.00  0.00    -0.031 A 
ATOM      9  C15 <0> d          30.870  69.727 -20.836  0.00  0.00     0.049 A 
ATOM     10  C14 <0> d          30.633  70.823 -20.036  0.00  0.00     0.121 A 
ATOM     11  C13 <0> d          31.164  72.058 -20.371  0.00  0.00     0.044 A 
ATOM     12  C12 <0> d          31.937  72.203 -21.512  0.00  0.00     0.022 A 
ATOM     13 Br2  <0> d          30.832  73.556 -19.265  0.00  0.00    -0.048 Br
ATOM     14  C11 <0> d          32.188  71.116 -22.320  0.00  0.00     0.013 A 
BRANCH  10  15
ATOM     15  N2  <0> d          29.810  70.681 -18.814  0.00  0.00    -0.114 N 
ATOM     16  O1  <0> d          30.342  70.435 -17.747  0.00  0.00    -0.532 OA
ATOM     17  O2  <0> d          28.600  70.811 -18.877  0.00  0.00    -0.532 OA
ENDBRANCH  10  15
ENDBRANCH   4   8
BRANCH   1  18
ATOM     18  C3  <0> d          28.081  68.895 -25.865  0.00  0.00     0.018 A 
ATOM     19  C2  <0> d          27.940  68.891 -27.254  0.00  0.00     0.016 A 
ATOM     20  C1  <0> d          26.748  69.289 -27.825  0.00  0.00     0.002 A 
ATOM     21  C6  <0> d          25.693  69.687 -27.025  0.00  0.00     0.019 A 
ATOM     22  C5  <0> d          25.824  69.689 -25.646  0.00  0.00     0.012 A 
ATOM     23  C4  <0> d          27.009  69.293 -25.062  0.00  0.00     0.035 A 
ATOM     24 Br1  <0> d          24.375  70.235 -24.561  0.00  0.00    -0.051 Br
ENDBRANCH   1  18
TORSDOF 3
ENDMDL
MODEL 4
REMARK VINA RESULT:      -7.6      2.626      3.106
REMARK  3 active torsions:
REMARK  status: ('A' for Active; 'I' for Inactive)
REMARK    1  A    between atoms: C3_3  and  C7_8 
REMARK    2  A    between atoms: C9_11  and  C10_12 
REMARK    3  A    between atoms: C14_16  and  N2_18 
ROOT
ATOM      1  C7  <0> d          29.769  69.247 -24.048  0.00  0.00     0.184 A 
ATOM      2  N1  <0> d          29.872  69.516 -22.776  0.00  0.00    -0.218 NA
ATOM      3  C8  <0> d          31.171  69.359 -22.390  0.00  0.00     0.136 A 
ATOM      4  C9  <0> d          31.696  69.543 -21.130  0.00  0.00     0.049 C 
ATOM      5  C16 <0> d          31.897  68.957 -23.611  0.00  0.00     0.318 A 
ATOM      6  O3  <0> d          33.085  68.717 -23.718  0.00  0.00    -0.257 OA
ATOM      7  O4  <0> d          30.960  68.913 -24.582  0.00  0.00    -0.254 OA
ENDROOT
BRANCH   4   8
ATOM      8  C10 <0> d          30.846  70.055 -20.050  0.00  0.00    -0.031 A 
ATOM      9  C15 <0> d          30.729  71.436 -19.841  0.00  0.00     0.049 A 
ATOM     10  C14 <0> d          29.929  71.909 -18.824  0.00  0.00     0.121 A 
ATOM     11  C13 <0> d          29.240  71.024 -18.010  0.00  0.00     0.044 A 
ATOM     12  C12 <0> d          29.351  69.658 -18.210  0.00  0.00     0.022 A 
ATOM     13 Br2  <0> d          28.145  71.685 -16.617  0.00  0.00    -0.048 Br
ATOM     14  C11 <0> d          30.142  69.168 -19.225  0.00  0.00     0.013 A 
BRANCH  10  15
ATOM     15  N2  <0> d          29.803  73.367 -18.601  0.00  0.00    -0.114 N 
ATOM     16  O1  <0> d          30.576  73.937 -17.853  0.00  0.00    -0.532 OA
ATOM     17  O2  <0> d          28.927  73.996 -19.168  0.00  0.00    -0.532 OA
ENDBRANCH  10  15
ENDBRANCH   4   8
BRANCH   1  18
ATOM     18  C3  <0> d          28.506  69.309 -24.810  0.00  0.00     0.018 A 
ATOM     19  C2  <0> d          28.524  69.250 -26.205  0.00  0.00     0.016 A 
ATOM     20  C1  <0> d          27.340  69.314 -26.910  0.00  0.00     0.002 A 
ATOM     21  C6  <0> d          26.136  69.432 -26.239  0.00  0.00     0.019 A 
ATOM     22  C5  <0> d          26.110  69.487 -24.856  0.00  0.00     0.012 A 
ATOM     23  C4  <0> d          27.286  69.424 -24.138  0.00  0.00     0.035 A 
ATOM     24 Br1  <0> d          24.459  69.648 -23.948  0.00  0.00    -0.051 Br
ENDBRANCH   1  18
TORSDOF 3
ENDMDL
MODEL 5
REMARK VINA RESULT:      -7.5      2.881      7.004
REMARK  3 active torsions:
REMARK  status: ('A' for Active; 'I' for Inactive)
REMARK    1  A    between atoms: C3_3  and  C7_8 
REMARK    2  A    between atoms: C9_11  and  C10_12 
REMARK    3  A    between atoms: C14_16  and  N2_18 
ROOT
ATOM      1  C7  <0> d          30.773  69.613 -22.018  0.00  0.00     0.184 A 
ATOM      2  N1  <0> d          29.850  69.728 -22.932  0.00  0.00    -0.218 NA
ATOM      3  C8  <0> d          30.172  68.936 -23.995  0.00  0.00     0.136 A 
ATOM      4  C9  <0> d          29.461  68.776 -25.164  0.00  0.00     0.049 C 
ATOM      5  C16 <0> d          31.443  68.282 -23.625  0.00  0.00     0.318 A 
ATOM      6  O3  <0> d          32.085  67.487 -24.287  0.00  0.00    -0.257 OA
ATOM      7  O4  <0> d          31.739  68.754 -22.395  0.00  0.00    -0.254 OA
ENDROOT
BRANCH   4   8
ATOM      8  C10 <0> d          28.154  69.422 -25.319  0.00  0.00    -0.031 A 
ATOM      9  C15 <0> d          27.927  70.306 -26.383  0.00  0.00     0.049 A 
ATOM     10  C14 <0> d          26.697  70.909 -26.522  0.00  0.00     0.121 A 
ATOM     11  C13 <0> d          25.684  70.644 -25.614  0.00  0.00     0.044 A 
ATOM     12  C12 <0> d          25.900  69.772 -24.559  0.00  0.00     0.022 A 
ATOM     13 Br2  <0> d          23.999  71.479 -25.814  0.00  0.00    -0.048 Br
ATOM     14  C11 <0> d          27.123  69.156 -24.409  0.00  0.00     0.013 A 
BRANCH  10  15
ATOM     15  N2  <0> d          26.455  71.843 -27.644  0.00  0.00    -0.114 N 
ATOM     16  O1  <0> d          26.563  73.044 -27.471  0.00  0.00    -0.532 OA
ATOM     17  O2  <0> d          26.149  71.410 -28.741  0.00  0.00    -0.532 OA
ENDBRANCH  10  15
ENDBRANCH   4   8
BRANCH   1  18
ATOM     18  C3  <0> d          30.757  70.329 -20.727  0.00  0.00     0.018 A 
ATOM     19  C2  <0> d          30.711  71.725 -20.700  0.00  0.00     0.016 A 
ATOM     20  C1  <0> d          30.702  72.388 -19.490  0.00  0.00     0.002 A 
ATOM     21  C6  <0> d          30.733  71.675 -18.305  0.00  0.00     0.019 A 
ATOM     22  C5  <0> d          30.774  70.290 -18.324  0.00  0.00     0.012 A 
ATOM     23  C4  <0> d          30.783  69.614 -19.527  0.00  0.00     0.035 A 
ATOM     24 Br1  <0> d          30.816  69.325 -16.699  0.00  0.00    -0.051 Br
ENDBRANCH   1  18
TORSDOF 3
ENDMDL
MODEL 6
REMARK VINA RESULT:      -7.5      3.793      6.704
REMARK  3 active torsions:
REMARK  status: ('A' for Active; 'I' for Inactive)
REMARK    1  A    between atoms: C3_3  and  C7_8 
REMARK    2  A    between atoms: C9_11  and  C10_12 
REMARK    3  A    between atoms: C14_16  and  N2_18 
ROOT
ATOM      1  C7  <0> d          28.670  68.734 -25.764  0.00  0.00     0.184 A 
ATOM      2  N1  <0> d          27.612  69.226 -25.181  0.00  0.00    -0.218 NA
ATOM      3  C8  <0> d          26.646  69.444 -26.119  0.00  0.00     0.136 A 
ATOM      4  C9  <0> d          25.384  69.957 -25.916  0.00  0.00     0.049 C 
ATOM      5  C16 <0> d          27.237  69.007 -27.399  0.00  0.00     0.318 A 
ATOM      6  O3  <0> d          26.715  69.024 -28.499  0.00  0.00    -0.257 OA
ATOM      7  O4  <0> d          28.481  68.585 -27.089  0.00  0.00    -0.254 OA
ENDROOT
BRANCH   4   8
ATOM      8  C10 <0> d          24.918  70.236 -24.554  0.00  0.00    -0.031 A 
ATOM      9  C15 <0> d          24.821  71.559 -24.100  0.00  0.00     0.049 A 
ATOM     10  C14 <0> d          24.383  71.814 -22.819  0.00  0.00     0.121 A 
ATOM     11  C13 <0> d          24.040  70.766 -21.979  0.00  0.00     0.044 A 
ATOM     12  C12 <0> d          24.134  69.456 -22.419  0.00  0.00     0.022 A 
ATOM     13 Br2  <0> d          23.441  71.127 -20.222  0.00  0.00    -0.048 Br
ATOM     14  C11 <0> d          24.564  69.184 -23.699  0.00  0.00     0.013 A 
BRANCH  10  15
ATOM     15  N2  <0> d          24.278  73.209 -22.338  0.00  0.00    -0.114 N 
ATOM     16  O1  <0> d          23.232  73.819 -22.464  0.00  0.00    -0.532 OA
ATOM     17  O2  <0> d          25.239  73.747 -21.816  0.00  0.00    -0.532 OA
ENDBRANCH  10  15
ENDBRANCH   4   8
BRANCH   1  18
ATOM     18  C3  <0> d          29.916  68.377 -25.057  0.00  0.00     0.018 A 
ATOM     19  C2  <0> d          30.607  67.212 -25.397  0.00  0.00     0.016 A 
ATOM     20  C1  <0> d          31.768  66.882 -24.728  0.00  0.00     0.002 A 
ATOM     21  C6  <0> d          32.250  67.703 -23.726  0.00  0.00     0.019 A 
ATOM     22  C5  <0> d          31.573  68.862 -23.386  0.00  0.00     0.012 A 
ATOM     23  C4  <0> d          30.411  69.205 -24.046  0.00  0.00     0.035 A 
ATOM     24 Br1  <0> d          32.241  69.978 -22.013  0.00  0.00    -0.051 Br
ENDBRANCH   1  18
TORSDOF 3
ENDMDL
MODEL 7
REMARK VINA RESULT:      -7.3      3.266      7.232
REMARK  3 active torsions:
REMARK  status: ('A' for Active; 'I' for Inactive)
REMARK    1  A    between atoms: C3_3  and  C7_8 
REMARK    2  A    between atoms: C9_11  and  C10_12 
REMARK    3  A    between atoms: C14_16  and  N2_18 
ROOT
ATOM      1  C7  <0> d          29.836  68.623 -25.211  0.00  0.00     0.184 A 
ATOM      2  N1  <0> d          28.845  69.289 -25.737  0.00  0.00    -0.218 NA
ATOM      3  C8  <0> d          28.459  68.676 -26.893  0.00  0.00     0.136 A 
ATOM      4  C9  <0> d          27.452  69.064 -27.749  0.00  0.00     0.049 C 
ATOM      5  C16 <0> d          29.346  67.504 -27.030  0.00  0.00     0.318 A 
ATOM      6  O3  <0> d          29.344  66.676 -27.923  0.00  0.00    -0.257 OA
ATOM      7  O4  <0> d          30.160  67.548 -25.954  0.00  0.00    -0.254 OA
ENDROOT
BRANCH   4   8
ATOM      8  C10 <0> d          26.591  70.198 -27.399  0.00  0.00    -0.031 A 
ATOM      9  C15 <0> d          25.404  69.988 -26.684  0.00  0.00     0.049 A 
ATOM     10  C14 <0> d          24.601  71.058 -26.359  0.00  0.00     0.121 A 
ATOM     11  C13 <0> d          24.963  72.341 -26.737  0.00  0.00     0.044 A 
ATOM     12  C12 <0> d          26.134  72.559 -27.444  0.00  0.00     0.022 A 
ATOM     13 Br2  <0> d          23.852  73.804 -26.287  0.00  0.00    -0.048 Br
ATOM     14  C11 <0> d          26.952  71.500 -27.772  0.00  0.00     0.013 A 
BRANCH  10  15
ATOM     15  N2  <0> d          23.347  70.838 -25.604  0.00  0.00    -0.114 N 
ATOM     16  O1  <0> d          23.358  70.862 -24.386  0.00  0.00    -0.532 OA
ATOM     17  O2  <0> d          22.304  70.635 -26.200  0.00  0.00    -0.532 OA
ENDBRANCH  10  15
ENDBRANCH   4   8
BRANCH   1  18
ATOM     18  C3  <0> d          30.512  68.998 -23.953  0.00  0.00     0.018 A 
ATOM     19  C2  <0> d          31.900  68.890 -23.843  0.00  0.00     0.016 A 
ATOM     20  C1  <0> d          32.525  69.237 -22.663  0.00  0.00     0.002 A 
ATOM     21  C6  <0> d          31.781  69.695 -21.591  0.00  0.00     0.019 A 
ATOM     22  C5  <0> d          30.404  69.810 -21.694  0.00  0.00     0.012 A 
ATOM     23  C4  <0> d          29.767  69.466 -22.868  0.00  0.00     0.035 A 
ATOM     24 Br1  <0> d          29.396  70.437 -20.222  0.00  0.00    -0.051 Br
ENDBRANCH   1  18
TORSDOF 3
ENDMDL
MODEL 8
REMARK VINA RESULT:      -7.2      4.799      6.099
REMARK  3 active torsions:
REMARK  status: ('A' for Active; 'I' for Inactive)
REMARK    1  A    between atoms: C3_3  and  C7_8 
REMARK    2  A    between atoms: C9_11  and  C10_12 
REMARK    3  A    between atoms: C14_16  and  N2_18 
ROOT
ATOM      1  C7  <0> d          27.976  69.473 -24.478  0.00  0.00     0.184 A 
ATOM      2  N1  <0> d          27.434  69.229 -23.317  0.00  0.00    -0.218 NA
ATOM      3  C8  <0> d          28.351  69.472 -22.336  0.00  0.00     0.136 A 
ATOM      4  C9  <0> d          28.178  69.333 -20.977  0.00  0.00     0.049 C 
ATOM      5  C16 <0> d          29.568  69.921 -23.041  0.00  0.00     0.318 A 
ATOM      6  O3  <0> d          30.631  70.248 -22.544  0.00  0.00    -0.257 OA
ATOM      7  O4  <0> d          29.249  69.894 -24.352  0.00  0.00    -0.254 OA
ENDROOT
BRANCH   4   8
ATOM      8  C10 <0> d          26.860  68.979 -20.440  0.00  0.00    -0.031 A 
ATOM      9  C15 <0> d          25.789  69.876 -20.554  0.00  0.00     0.049 A 
ATOM     10  C14 <0> d          24.554  69.536 -20.047  0.00  0.00     0.121 A 
ATOM     11  C13 <0> d          24.369  68.312 -19.424  0.00  0.00     0.044 A 
ATOM     12  C12 <0> d          25.423  67.420 -19.306  0.00  0.00     0.022 A 
ATOM     13 Br2  <0> d          22.670  67.857 -18.730  0.00  0.00    -0.048 Br
ATOM     14  C11 <0> d          26.663  67.741 -19.813  0.00  0.00     0.013 A 
BRANCH  10  15
ATOM     15  N2  <0> d          23.421  70.481 -20.167  0.00  0.00    -0.114 N 
ATOM     16  O1  <0> d          23.223  71.307 -19.295  0.00  0.00    -0.532 OA
ATOM     17  O2  <0> d          22.689  70.433 -21.140  0.00  0.00    -0.532 OA
ENDBRANCH  10  15
ENDBRANCH   4   8
BRANCH   1  18
ATOM     18  C3  <0> d          27.277  69.316 -25.769  0.00  0.00     0.018 A 
ATOM     19  C2  <0> d          28.007  69.121 -26.943  0.00  0.00     0.016 A 
ATOM     20  C1  <0> d          27.347  68.981 -28.147  0.00  0.00     0.002 A 
ATOM     21  C6  <0> d          25.966  69.028 -28.192  0.00  0.00     0.019 A 
ATOM     22  C5  <0> d          25.234  69.217 -27.031  0.00  0.00     0.012 A 
ATOM     23  C4  <0> d          25.881  69.358 -25.821  0.00  0.00     0.035 A 
ATOM     24 Br1  <0> d          23.346  69.280 -27.104  0.00  0.00    -0.051 Br
ENDBRANCH   1  18
TORSDOF 3
ENDMDL
MODEL 9
REMARK VINA RESULT:      -7.2      4.738      7.570
REMARK  3 active torsions:
REMARK  status: ('A' for Active; 'I' for Inactive)
REMARK    1  A    between atoms: C3_3  and  C7_8 
REMARK    2  A    between atoms: C9_11  and  C10_12 
REMARK    3  A    between atoms: C14_16  and  N2_18 
ROOT
ATOM      1  C7  <0> d          28.421  68.971 -24.981  0.00  0.00     0.184 A 
ATOM      2  N1  <0> d          27.437  69.103 -24.134  0.00  0.00    -0.218 NA
ATOM      3  C8  <0> d          26.326  69.524 -24.803  0.00  0.00     0.136 A 
ATOM      4  C9  <0> d          25.081  69.785 -24.275  0.00  0.00     0.049 C 
ATOM      5  C16 <0> d          26.738  69.635 -26.217  0.00  0.00     0.318 A 
ATOM      6  O3  <0> d          26.051  69.977 -27.162  0.00  0.00    -0.257 OA
ATOM      7  O4  <0> d          28.039  69.276 -26.236  0.00  0.00    -0.254 OA
ENDROOT
BRANCH   4   8
ATOM      8  C10 <0> d          24.816  69.513 -22.858  0.00  0.00    -0.031 A 
ATOM      9  C15 <0> d          23.497  69.450 -22.388  0.00  0.00     0.049 A 
ATOM     10  C14 <0> d          23.256  69.195 -21.056  0.00  0.00     0.121 A 
ATOM     11  C13 <0> d          24.314  69.001 -20.181  0.00  0.00     0.044 A 
ATOM     12  C12 <0> d          25.620  69.063 -20.638  0.00  0.00     0.022 A 
ATOM     13 Br2  <0> d          23.972  68.652 -18.354  0.00  0.00    -0.048 Br
ATOM     14  C11 <0> d          25.879  69.311 -21.968  0.00  0.00     0.013 A 
BRANCH  10  15
ATOM     15  N2  <0> d          21.865  69.126 -20.557  0.00  0.00    -0.114 N 
ATOM     16  O1  <0> d          21.315  70.133 -20.148  0.00  0.00    -0.532 OA
ATOM     17  O2  <0> d          21.269  68.064 -20.557  0.00  0.00    -0.532 OA
ENDBRANCH  10  15
ENDBRANCH   4   8
BRANCH   1  18
ATOM     18  C3  <0> d          29.781  68.533 -24.610  0.00  0.00     0.018 A 
ATOM     19  C2  <0> d          30.287  67.326 -25.096  0.00  0.00     0.016 A 
ATOM     20  C1  <0> d          31.557  66.920 -24.741  0.00  0.00     0.002 A 
ATOM     21  C6  <0> d          32.332  67.709 -23.910  0.00  0.00     0.019 A 
ATOM     22  C5  <0> d          31.839  68.911 -23.428  0.00  0.00     0.012 A 
ATOM     23  C4  <0> d          30.571  69.328 -23.775  0.00  0.00     0.035 A 
ATOM     24 Br1  <0> d          32.906  69.981 -22.292  0.00  0.00    -0.051 Br
ENDBRANCH   1  18
TORSDOF 3
ENDMDL
MODEL 10
REMARK VINA RESULT:      -7.1      4.467      8.247
REMARK  3 active torsions:
REMARK  status: ('A' for Active; 'I' for Inactive)
REMARK    1  A    between atoms: C3_3  and  C7_8 
REMARK    2  A    between atoms: C9_11  and  C10_12 
REMARK    3  A    between atoms: C14_16  and  N2_18 
ROOT
ATOM      1  C7  <0> d          26.776  69.009 -20.023  0.00  0.00     0.184 A 
ATOM      2  N1  <0> d          26.242  69.337 -21.167  0.00  0.00    -0.218 NA
ATOM      3  C8  <0> d          24.913  69.034 -21.144  0.00  0.00     0.136 A 
ATOM      4  C9  <0> d          23.995  69.221 -22.154  0.00  0.00     0.049 C 
ATOM      5  C16 <0> d          24.664  68.467 -19.804  0.00  0.00     0.318 A 
ATOM      6  O3  <0> d          23.605  68.066 -19.356  0.00  0.00    -0.257 OA
ATOM      7  O4  <0> d          25.861  68.490 -19.181  0.00  0.00    -0.254 OA
ENDROOT
BRANCH   4   8
ATOM      8  C10 <0> d          24.394  69.903 -23.388  0.00  0.00    -0.031 A 
ATOM      9  C15 <0> d          24.981  69.180 -24.435  0.00  0.00     0.049 A 
ATOM     10  C14 <0> d          25.354  69.828 -25.592  0.00  0.00     0.121 A 
ATOM     11  C13 <0> d          25.150  71.193 -25.722  0.00  0.00     0.044 A 
ATOM     12  C12 <0> d          24.571  71.916 -24.691  0.00  0.00     0.022 A 
ATOM     13 Br2  <0> d          25.667  72.074 -27.314  0.00  0.00    -0.048 Br
ATOM     14  C11 <0> d          24.187  71.282 -23.530  0.00  0.00     0.013 A 
BRANCH  10  15
ATOM     15  N2  <0> d          25.973  69.066 -26.699  0.00  0.00    -0.114 N 
ATOM     16  O1  <0> d          25.270  68.535 -27.539  0.00  0.00    -0.532 OA
ATOM     17  O2  <0> d          27.186  68.972 -26.770  0.00  0.00    -0.532 OA
ENDBRANCH  10  15
ENDBRANCH   4   8
BRANCH   1  18
ATOM     18  C3  <0> d          28.202  69.192 -19.690  0.00  0.00     0.018 A 
ATOM     19  C2  <0> d          28.661  68.925 -18.399  0.00  0.00     0.016 A 
ATOM     20  C1  <0> d          29.995  69.103 -18.093  0.00  0.00     0.002 A 
ATOM     21  C6  <0> d          30.878  69.542 -19.063  0.00  0.00     0.019 A 
ATOM     22  C5  <0> d          30.431  69.804 -20.347  0.00  0.00     0.012 A 
ATOM     23  C4  <0> d          29.101  69.630 -20.667  0.00  0.00     0.035 A 
ATOM     24 Br1  <0> d          31.647  70.404 -21.666  0.00  0.00    -0.051 Br
ENDBRANCH   1  18
TORSDOF 3
ENDMDL
