MODEL 1
REMARK VINA RESULT:      -7.0      0.000      0.000
REMARK  4 active torsions:
REMARK  status: ('A' for Active; 'I' for Inactive)
REMARK    1  A    between atoms: N2_4  and  C12_19 
REMARK    2  A    between atoms: C4_7  and  N3_8 
REMARK    3  A    between atoms: N4_9  and  C5_10 
REMARK    4  A    between atoms: C10_15  and  O2_16 
ROOT
ATOM      1  C1  <0> d          28.547  67.722 -28.330  0.00  0.00     0.070 C 
ATOM      2  C2  <0> d          27.501  68.793 -28.153  0.00  0.00     0.065 A 
ATOM      3  N1  <0> d          26.238  68.638 -28.243  0.00  0.00    -0.171 NA
ATOM      4  N2  <0> d          25.526  69.815 -28.026  0.00  0.00    -0.199 N 
ATOM      5  C3  <0> d          26.358  70.847 -27.772  0.00  0.00     0.277 A 
ATOM      6  O1  <0> d          26.057  71.999 -27.542  0.00  0.00    -0.268 OA
ATOM      7  C4  <0> d          27.752  70.251 -27.835  0.00  0.00     0.273 A 
ENDROOT
BRANCH   7   8
ATOM      8  N3  <0> d          28.429  70.388 -26.543  0.00  0.00    -0.171 NA
ATOM      9  N4  <0> d          28.192  69.582 -25.631  0.00  0.00    -0.152 NA
BRANCH   9  10
ATOM     10  C5  <0> d          28.824  69.710 -24.425  0.00  0.00     0.112 A 
ATOM     11  C10 <0> d          29.974  68.956 -24.148  0.00  0.00     0.100 A 
ATOM     12  C9  <0> d          30.607  69.093 -22.923  0.00  0.00     0.063 A 
ATOM     13  C8  <0> d          30.107  69.971 -21.979  0.00  0.00     0.036 A 
ATOM     14  C7  <0> d          28.971  70.719 -22.250  0.00  0.00     0.026 A 
ATOM     15 Cl1  <0> d          30.907  70.137 -20.447  0.00  0.00    -0.084 Cl
ATOM     16  C6  <0> d          28.333  70.598 -23.465  0.00  0.00     0.038 A 
BRANCH  11  17
ATOM     17  O2  <0> d          30.462  68.094 -25.076  0.00  0.00    -0.353 OA
ATOM     18  C11 <0> d          30.201  66.703 -24.869  0.00  0.00     0.210 C 
ENDBRANCH  11  17
ENDBRANCH   9  10
ENDBRANCH   7   8
BRANCH   4  19
ATOM     19  C12 <0> d          24.130  69.915 -28.069  0.00  0.00     0.061 A 
ATOM     20  C17 <0> d          23.349  69.069 -27.294  0.00  0.00     0.032 A 
ATOM     21  C16 <0> d          21.971  69.172 -27.337  0.00  0.00     0.002 A 
ATOM     22  C15 <0> d          21.372  70.115 -28.151  0.00  0.00     0.000 A 
ATOM     23  C14 <0> d          22.148  70.959 -28.923  0.00  0.00     0.002 A 
ATOM     24  C13 <0> d          23.526  70.866 -28.880  0.00  0.00     0.032 A 
ENDBRANCH   4  19
TORSDOF 4
ENDMDL
MODEL 2
REMARK VINA RESULT:      -6.9      3.495      8.075
REMARK  4 active torsions:
REMARK  status: ('A' for Active; 'I' for Inactive)
REMARK    1  A    between atoms: N2_4  and  C12_19 
REMARK    2  A    between atoms: C4_7  and  N3_8 
REMARK    3  A    between atoms: N4_9  and  C5_10 
REMARK    4  A    between atoms: C10_15  and  O2_16 
ROOT
ATOM      1  C1  <0> d          25.488  69.994 -22.294  0.00  0.00     0.070 C 
ATOM      2  C2  <0> d          26.657  69.848 -23.234  0.00  0.00     0.065 A 
ATOM      3  N1  <0> d          27.754  69.245 -22.989  0.00  0.00    -0.171 NA
ATOM      4  N2  <0> d          28.646  69.276 -24.057  0.00  0.00    -0.199 N 
ATOM      5  C3  <0> d          28.126  69.948 -25.106  0.00  0.00     0.277 A 
ATOM      6  O1  <0> d          28.645  70.154 -26.182  0.00  0.00    -0.268 OA
ATOM      7  C4  <0> d          26.749  70.389 -24.645  0.00  0.00     0.273 A 
ENDROOT
BRANCH   7   8
ATOM      8  N3  <0> d          25.709  69.799 -25.492  0.00  0.00    -0.171 NA
ATOM      9  N4  <0> d          24.869  70.529 -26.040  0.00  0.00    -0.152 NA
BRANCH   9  10
ATOM     10  C5  <0> d          23.898  69.978 -26.830  0.00  0.00     0.112 A 
ATOM     11  C10 <0> d          23.096  70.798 -27.636  0.00  0.00     0.100 A 
ATOM     12  C9  <0> d          22.115  70.231 -28.433  0.00  0.00     0.063 A 
ATOM     13  C8  <0> d          21.929  68.861 -28.433  0.00  0.00     0.036 A 
ATOM     14  C7  <0> d          22.720  68.046 -27.637  0.00  0.00     0.026 A 
ATOM     15 Cl1  <0> d          20.697  68.157 -29.434  0.00  0.00    -0.084 Cl
ATOM     16  C6  <0> d          23.704  68.595 -26.843  0.00  0.00     0.038 A 
BRANCH  11  17
ATOM     17  O2  <0> d          23.280  72.143 -27.634  0.00  0.00    -0.353 OA
ATOM     18  C11 <0> d          22.468  72.910 -28.528  0.00  0.00     0.210 C 
ENDBRANCH  11  17
ENDBRANCH   9  10
ENDBRANCH   7   8
BRANCH   4  19
ATOM     19  C12 <0> d          29.917  68.690 -24.045  0.00  0.00     0.061 A 
ATOM     20  C17 <0> d          30.936  69.252 -23.288  0.00  0.00     0.032 A 
ATOM     21  C16 <0> d          32.188  68.670 -23.277  0.00  0.00     0.002 A 
ATOM     22  C15 <0> d          32.428  67.529 -24.020  0.00  0.00     0.000 A 
ATOM     23  C14 <0> d          31.416  66.966 -24.774  0.00  0.00     0.002 A 
ATOM     24  C13 <0> d          30.159  67.540 -24.785  0.00  0.00     0.032 A 
ENDBRANCH   4  19
TORSDOF 4
ENDMDL
MODEL 3
REMARK VINA RESULT:      -6.6      3.613      8.090
REMARK  4 active torsions:
REMARK  status: ('A' for Active; 'I' for Inactive)
REMARK    1  A    between atoms: N2_4  and  C12_19 
REMARK    2  A    between atoms: C4_7  and  N3_8 
REMARK    3  A    between atoms: N4_9  and  C5_10 
REMARK    4  A    between atoms: C10_15  and  O2_16 
ROOT
ATOM      1  C1  <0> d          26.192  73.041 -27.243  0.00  0.00     0.070 C 
ATOM      2  C2  <0> d          26.589  71.587 -27.260  0.00  0.00     0.065 A 
ATOM      3  N1  <0> d          27.473  71.036 -26.525  0.00  0.00    -0.171 NA
ATOM      4  N2  <0> d          27.616  69.672 -26.770  0.00  0.00    -0.199 N 
ATOM      5  C3  <0> d          26.771  69.261 -27.740  0.00  0.00     0.277 A 
ATOM      6  O1  <0> d          26.647  68.140 -28.184  0.00  0.00    -0.268 OA
ATOM      7  C4  <0> d          26.011  70.508 -28.151  0.00  0.00     0.273 A 
ENDROOT
BRANCH   7   8
ATOM      8  N3  <0> d          24.577  70.344 -27.899  0.00  0.00    -0.171 NA
ATOM      9  N4  <0> d          23.751  70.734 -28.738  0.00  0.00    -0.152 NA
BRANCH   9  10
ATOM     10  C5  <0> d          22.413  70.580 -28.502  0.00  0.00     0.112 A 
ATOM     11  C10 <0> d          21.511  70.521 -29.573  0.00  0.00     0.100 A 
ATOM     12  C9  <0> d          20.157  70.366 -29.323  0.00  0.00     0.063 A 
ATOM     13  C8  <0> d          19.699  70.268 -28.022  0.00  0.00     0.036 A 
ATOM     14  C7  <0> d          20.588  70.327 -26.960  0.00  0.00     0.026 A 
ATOM     15 Cl1  <0> d          18.001  70.074 -27.718  0.00  0.00    -0.084 Cl
ATOM     16  C6  <0> d          21.939  70.475 -27.192  0.00  0.00     0.038 A 
BRANCH  11  17
ATOM     17  O2  <0> d          21.962  70.618 -30.850  0.00  0.00    -0.353 OA
ATOM     18  C11 <0> d          21.148  70.036 -31.871  0.00  0.00     0.210 C 
ENDBRANCH  11  17
ENDBRANCH   9  10
ENDBRANCH   7   8
BRANCH   4  19
ATOM     19  C12 <0> d          28.518  68.838 -26.100  0.00  0.00     0.061 A 
ATOM     20  C17 <0> d          28.730  68.995 -24.737  0.00  0.00     0.032 A 
ATOM     21  C16 <0> d          29.620  68.169 -24.078  0.00  0.00     0.002 A 
ATOM     22  C15 <0> d          30.299  67.186 -24.775  0.00  0.00     0.000 A 
ATOM     23  C14 <0> d          30.088  67.026 -26.132  0.00  0.00     0.002 A 
ATOM     24  C13 <0> d          29.196  67.845 -26.796  0.00  0.00     0.032 A 
ENDBRANCH   4  19
TORSDOF 4
ENDMDL
MODEL 4
REMARK VINA RESULT:      -6.6      4.010      8.279
REMARK  4 active torsions:
REMARK  status: ('A' for Active; 'I' for Inactive)
REMARK    1  A    between atoms: N2_4  and  C12_19 
REMARK    2  A    between atoms: C4_7  and  N3_8 
REMARK    3  A    between atoms: N4_9  and  C5_10 
REMARK    4  A    between atoms: C10_15  and  O2_16 
ROOT
ATOM      1  C1  <0> d          33.273  70.275 -23.052  0.00  0.00     0.070 C 
ATOM      2  C2  <0> d          32.147  70.277 -22.050  0.00  0.00     0.065 A 
ATOM      3  N1  <0> d          31.850  71.224 -21.248  0.00  0.00    -0.171 NA
ATOM      4  N2  <0> d          30.753  70.933 -20.441  0.00  0.00    -0.199 N 
ATOM      5  C3  <0> d          30.266  69.702 -20.707  0.00  0.00     0.277 A 
ATOM      6  O1  <0> d          29.322  69.153 -20.181  0.00  0.00    -0.268 OA
ATOM      7  C4  <0> d          31.158  69.157 -21.807  0.00  0.00     0.273 A 
ENDROOT
BRANCH   7   8
ATOM      8  N3  <0> d          30.377  68.888 -23.017  0.00  0.00    -0.171 NA
ATOM      9  N4  <0> d          29.683  69.785 -23.519  0.00  0.00    -0.152 NA
BRANCH   9  10
ATOM     10  C5  <0> d          28.954  69.533 -24.648  0.00  0.00     0.112 A 
ATOM     11  C10 <0> d          27.678  70.095 -24.803  0.00  0.00     0.100 A 
ATOM     12  C9  <0> d          26.948  69.834 -25.951  0.00  0.00     0.063 A 
ATOM     13  C8  <0> d          27.475  69.023 -26.939  0.00  0.00     0.036 A 
ATOM     14  C7  <0> d          28.735  68.465 -26.789  0.00  0.00     0.026 A 
ATOM     15 Cl1  <0> d          26.553  68.700 -28.374  0.00  0.00    -0.084 Cl
ATOM     16  C6  <0> d          29.477  68.720 -25.656  0.00  0.00     0.038 A 
BRANCH  11  17
ATOM     17  O2  <0> d          27.162  70.891 -23.832  0.00  0.00    -0.353 OA
ATOM     18  C11 <0> d          26.971  72.270 -24.158  0.00  0.00     0.210 C 
ENDBRANCH  11  17
ENDBRANCH   9  10
ENDBRANCH   7   8
BRANCH   4  19
ATOM     19  C12 <0> d          30.226  71.802 -19.479  0.00  0.00     0.061 A 
ATOM     20  C17 <0> d          30.917  72.033 -18.297  0.00  0.00     0.032 A 
ATOM     21  C16 <0> d          30.394  72.893 -17.350  0.00  0.00     0.002 A 
ATOM     22  C15 <0> d          29.184  73.521 -17.579  0.00  0.00     0.000 A 
ATOM     23  C14 <0> d          28.494  73.294 -18.754  0.00  0.00     0.002 A 
ATOM     24  C13 <0> d          29.014  72.440 -19.708  0.00  0.00     0.032 A 
ENDBRANCH   4  19
TORSDOF 4
ENDMDL
MODEL 5
REMARK VINA RESULT:      -6.1     22.582     25.434
REMARK  4 active torsions:
REMARK  status: ('A' for Active; 'I' for Inactive)
REMARK    1  A    between atoms: N2_4  and  C12_19 
REMARK    2  A    between atoms: C4_7  and  N3_8 
REMARK    3  A    between atoms: N4_9  and  C5_10 
REMARK    4  A    between atoms: C10_15  and  O2_16 
ROOT
ATOM      1  C1  <0> d          31.289  54.831  -5.951  0.00  0.00     0.070 C 
ATOM      2  C2  <0> d          29.870  54.502  -5.565  0.00  0.00     0.065 A 
ATOM      3  N1  <0> d          29.504  53.680  -4.661  0.00  0.00    -0.171 NA
ATOM      4  N2  <0> d          28.120  53.589  -4.533  0.00  0.00    -0.199 N 
ATOM      5  C3  <0> d          27.496  54.404  -5.409  0.00  0.00     0.277 A 
ATOM      6  O1  <0> d          26.302  54.559  -5.552  0.00  0.00    -0.268 OA
ATOM      7  C4  <0> d          28.614  55.086  -6.175  0.00  0.00     0.273 A 
ENDROOT
BRANCH   7   8
ATOM      8  N3  <0> d          28.568  56.536  -5.973  0.00  0.00    -0.171 NA
ATOM      9  N4  <0> d          28.125  57.273  -6.867  0.00  0.00    -0.152 NA
BRANCH   9  10
ATOM     10  C5  <0> d          28.083  58.626  -6.678  0.00  0.00     0.112 A 
ATOM     11  C10 <0> d          27.696  59.473  -7.726  0.00  0.00     0.100 A 
ATOM     12  C9  <0> d          27.656  60.843  -7.524  0.00  0.00     0.063 A 
ATOM     13  C8  <0> d          27.996  61.372  -6.293  0.00  0.00     0.036 A 
ATOM     14  C7  <0> d          28.379  60.538  -5.253  0.00  0.00     0.026 A 
ATOM     15 Cl1  <0> d          27.944  63.090  -6.048  0.00  0.00    -0.084 Cl
ATOM     16  C6  <0> d          28.418  59.173  -5.437  0.00  0.00     0.038 A 
BRANCH  11  17
ATOM     17  O2  <0> d          27.363  58.951  -8.935  0.00  0.00    -0.353 OA
ATOM     18  C11 <0> d          26.841  59.857  -9.910  0.00  0.00     0.210 C 
ENDBRANCH  11  17
ENDBRANCH   9  10
ENDBRANCH   7   8
BRANCH   4  19
ATOM     19  C12 <0> d          27.463  52.760  -3.616  0.00  0.00     0.061 A 
ATOM     20  C17 <0> d          27.072  51.481  -3.991  0.00  0.00     0.032 A 
ATOM     21  C16 <0> d          26.425  50.665  -3.083  0.00  0.00     0.002 A 
ATOM     22  C15 <0> d          26.166  51.121  -1.804  0.00  0.00     0.000 A 
ATOM     23  C14 <0> d          26.554  52.393  -1.428  0.00  0.00     0.002 A 
ATOM     24  C13 <0> d          27.207  53.212  -2.329  0.00  0.00     0.032 A 
ENDBRANCH   4  19
TORSDOF 4
ENDMDL
MODEL 6
REMARK VINA RESULT:      -6.0     21.756     24.796
REMARK  4 active torsions:
REMARK  status: ('A' for Active; 'I' for Inactive)
REMARK    1  A    between atoms: N2_4  and  C12_19 
REMARK    2  A    between atoms: C4_7  and  N3_8 
REMARK    3  A    between atoms: N4_9  and  C5_10 
REMARK    4  A    between atoms: C10_15  and  O2_16 
ROOT
ATOM      1  C1  <0> d           6.444  51.864 -29.458  0.00  0.00     0.070 C 
ATOM      2  C2  <0> d           7.493  51.702 -28.388  0.00  0.00     0.065 A 
ATOM      3  N1  <0> d           8.483  50.899 -28.415  0.00  0.00    -0.171 NA
ATOM      4  N2  <0> d           9.283  50.979 -27.278  0.00  0.00    -0.199 N 
ATOM      5  C3  <0> d           8.809  51.899 -26.413  0.00  0.00     0.277 A 
ATOM      6  O1  <0> d           9.272  52.208 -25.336  0.00  0.00    -0.268 OA
ATOM      7  C4  <0> d           7.569  52.463 -27.081  0.00  0.00     0.273 A 
ENDROOT
BRANCH   7   8
ATOM      8  N3  <0> d           7.725  53.899 -27.329  0.00  0.00    -0.171 NA
ATOM      9  N4  <0> d           8.651  54.307 -28.046  0.00  0.00    -0.152 NA
BRANCH   9  10
ATOM     10  C5  <0> d           8.797  55.646 -28.276  0.00  0.00     0.112 A 
ATOM     11  C10 <0> d          10.054  56.253 -28.140  0.00  0.00     0.100 A 
ATOM     12  C9  <0> d          10.191  57.611 -28.376  0.00  0.00     0.063 A 
ATOM     13  C8  <0> d           9.092  58.365 -28.745  0.00  0.00     0.036 A 
ATOM     14  C7  <0> d           7.847  57.769 -28.881  0.00  0.00     0.026 A 
ATOM     15 Cl1  <0> d           9.272  60.067 -29.039  0.00  0.00    -0.084 Cl
ATOM     16  C6  <0> d           7.696  56.418 -28.655  0.00  0.00     0.038 A 
BRANCH  11  17
ATOM     17  O2  <0> d          11.131  55.511 -27.777  0.00  0.00    -0.353 OA
ATOM     18  C11 <0> d          12.131  55.289 -28.775  0.00  0.00     0.210 C 
ENDBRANCH  11  17
ENDBRANCH   9  10
ENDBRANCH   7   8
BRANCH   4  19
ATOM     19  C12 <0> d          10.429  50.204 -27.061  0.00  0.00     0.061 A 
ATOM     20  C17 <0> d          10.313  48.915 -26.560  0.00  0.00     0.032 A 
ATOM     21  C16 <0> d          11.446  48.153 -26.348  0.00  0.00     0.002 A 
ATOM     22  C15 <0> d          12.694  48.674 -26.633  0.00  0.00     0.000 A 
ATOM     23  C14 <0> d          12.813  49.957 -27.133  0.00  0.00     0.002 A 
ATOM     24  C13 <0> d          11.684  50.723 -27.353  0.00  0.00     0.032 A 
ENDBRANCH   4  19
TORSDOF 4
ENDMDL
MODEL 7
REMARK VINA RESULT:      -6.0     22.294     25.322
REMARK  4 active torsions:
REMARK  status: ('A' for Active; 'I' for Inactive)
REMARK    1  A    between atoms: N2_4  and  C12_19 
REMARK    2  A    between atoms: C4_7  and  N3_8 
REMARK    3  A    between atoms: N4_9  and  C5_10 
REMARK    4  A    between atoms: C10_15  and  O2_16 
ROOT
ATOM      1  C1  <0> d           6.534  51.158 -27.506  0.00  0.00     0.070 C 
ATOM      2  C2  <0> d           7.975  50.950 -27.114  0.00  0.00     0.065 A 
ATOM      3  N1  <0> d           8.772  50.079 -27.598  0.00  0.00    -0.171 NA
ATOM      4  N2  <0> d          10.045  50.131 -27.036  0.00  0.00    -0.199 N 
ATOM      5  C3  <0> d          10.126  51.103 -26.103  0.00  0.00     0.277 A 
ATOM      6  O1  <0> d          11.090  51.406 -25.434  0.00  0.00    -0.268 OA
ATOM      7  C4  <0> d           8.747  51.735 -26.075  0.00  0.00     0.273 A 
ENDROOT
BRANCH   7   8
ATOM      8  N3  <0> d           8.821  53.150 -26.448  0.00  0.00    -0.171 NA
ATOM      9  N4  <0> d           9.267  53.476 -27.558  0.00  0.00    -0.152 NA
BRANCH   9  10
ATOM     10  C5  <0> d           9.337  54.796 -27.906  0.00  0.00     0.112 A 
ATOM     11  C10 <0> d           8.220  55.440 -28.457  0.00  0.00     0.100 A 
ATOM     12  C9  <0> d           8.300  56.778 -28.806  0.00  0.00     0.063 A 
ATOM     13  C8  <0> d           9.478  57.476 -28.609  0.00  0.00     0.036 A 
ATOM     14  C7  <0> d          10.584  56.844 -28.064  0.00  0.00     0.026 A 
ATOM     15 Cl1  <0> d           9.570  59.153 -29.048  0.00  0.00    -0.084 Cl
ATOM     16  C6  <0> d          10.519  55.514 -27.706  0.00  0.00     0.038 A 
BRANCH  11  17
ATOM     17  O2  <0> d           7.065  54.752 -28.650  0.00  0.00    -0.353 OA
ATOM     18  C11 <0> d           5.966  55.079 -27.796  0.00  0.00     0.210 C 
ENDBRANCH  11  17
ENDBRANCH   9  10
ENDBRANCH   7   8
BRANCH   4  19
ATOM     19  C12 <0> d          11.102  49.285 -27.392  0.00  0.00     0.061 A 
ATOM     20  C17 <0> d          11.396  48.175 -26.612  0.00  0.00     0.032 A 
ATOM     21  C16 <0> d          12.440  47.341 -26.966  0.00  0.00     0.002 A 
ATOM     22  C15 <0> d          13.190  47.613 -28.095  0.00  0.00     0.000 A 
ATOM     23  C14 <0> d          12.899  48.716 -28.874  0.00  0.00     0.002 A 
ATOM     24  C13 <0> d          11.853  49.551 -28.529  0.00  0.00     0.032 A 
ENDBRANCH   4  19
TORSDOF 4
ENDMDL
MODEL 8
REMARK VINA RESULT:      -6.0     23.004     25.918
REMARK  4 active torsions:
REMARK  status: ('A' for Active; 'I' for Inactive)
REMARK    1  A    between atoms: N2_4  and  C12_19 
REMARK    2  A    between atoms: C4_7  and  N3_8 
REMARK    3  A    between atoms: N4_9  and  C5_10 
REMARK    4  A    between atoms: C10_15  and  O2_16 
ROOT
ATOM      1  C1  <0> d          32.493  52.068  -3.940  0.00  0.00     0.070 C 
ATOM      2  C2  <0> d          33.363  52.752  -4.963  0.00  0.00     0.065 A 
ATOM      3  N1  <0> d          34.006  52.187  -5.908  0.00  0.00    -0.171 NA
ATOM      4  N2  <0> d          34.723  53.084  -6.695  0.00  0.00    -0.199 N 
ATOM      5  C3  <0> d          34.560  54.351  -6.259  0.00  0.00     0.277 A 
ATOM      6  O1  <0> d          35.047  55.360  -6.724  0.00  0.00    -0.268 OA
ATOM      7  C4  <0> d          33.635  54.238  -5.062  0.00  0.00     0.273 A 
ENDROOT
BRANCH   7   8
ATOM      8  N3  <0> d          32.392  54.976  -5.299  0.00  0.00    -0.171 NA
ATOM      9  N4  <0> d          31.815  54.882  -6.393  0.00  0.00    -0.152 NA
BRANCH   9  10
ATOM     10  C5  <0> d          30.656  55.571  -6.615  0.00  0.00     0.112 A 
ATOM     11  C10 <0> d          30.690  56.830  -7.231  0.00  0.00     0.100 A 
ATOM     12  C9  <0> d          29.509  57.520  -7.451  0.00  0.00     0.063 A 
ATOM     13  C8  <0> d          28.302  56.968  -7.065  0.00  0.00     0.036 A 
ATOM     14  C7  <0> d          28.263  55.723  -6.456  0.00  0.00     0.026 A 
ATOM     15 Cl1  <0> d          26.826  57.840  -7.345  0.00  0.00    -0.084 Cl
ATOM     16  C6  <0> d          29.428  55.021  -6.236  0.00  0.00     0.038 A 
BRANCH  11  17
ATOM     17  O2  <0> d          31.877  57.371  -7.607  0.00  0.00    -0.353 OA
ATOM     18  C11 <0> d          31.985  58.796  -7.558  0.00  0.00     0.210 C 
ENDBRANCH  11  17
ENDBRANCH   9  10
ENDBRANCH   7   8
BRANCH   4  19
ATOM     19  C12 <0> d          35.510  52.720  -7.794  0.00  0.00     0.061 A 
ATOM     20  C17 <0> d          34.994  51.880  -8.772  0.00  0.00     0.032 A 
ATOM     21  C16 <0> d          35.773  51.524  -9.855  0.00  0.00     0.002 A 
ATOM     22  C15 <0> d          37.066  52.002  -9.966  0.00  0.00     0.000 A 
ATOM     23  C14 <0> d          37.582  52.839  -8.995  0.00  0.00     0.002 A 
ATOM     24  C13 <0> d          36.806  53.204  -7.912  0.00  0.00     0.032 A 
ENDBRANCH   4  19
TORSDOF 4
ENDMDL
MODEL 9
REMARK VINA RESULT:      -5.9      4.674      8.799
REMARK  4 active torsions:
REMARK  status: ('A' for Active; 'I' for Inactive)
REMARK    1  A    between atoms: N2_4  and  C12_19 
REMARK    2  A    between atoms: C4_7  and  N3_8 
REMARK    3  A    between atoms: N4_9  and  C5_10 
REMARK    4  A    between atoms: C10_15  and  O2_16 
ROOT
ATOM      1  C1  <0> d          32.300  70.492 -22.143  0.00  0.00     0.070 C 
ATOM      2  C2  <0> d          31.348  71.021 -21.101  0.00  0.00     0.065 A 
ATOM      3  N1  <0> d          31.521  72.055 -20.374  0.00  0.00    -0.171 NA
ATOM      4  N2  <0> d          30.462  72.293 -19.502  0.00  0.00    -0.199 N 
ATOM      5  C3  <0> d          29.499  71.358 -19.640  0.00  0.00     0.277 A 
ATOM      6  O1  <0> d          28.453  71.281 -19.031  0.00  0.00    -0.268 OA
ATOM      7  C4  <0> d          30.009  70.426 -20.723  0.00  0.00     0.273 A 
ENDROOT
BRANCH   7   8
ATOM      8  N3  <0> d          29.101  70.427 -21.873  0.00  0.00    -0.171 NA
ATOM      9  N4  <0> d          28.683  69.353 -22.332  0.00  0.00    -0.152 NA
BRANCH   9  10
ATOM     10  C5  <0> d          27.836  69.354 -23.406  0.00  0.00     0.112 A 
ATOM     11  C10 <0> d          28.341  69.181 -24.702  0.00  0.00     0.100 A 
ATOM     12  C9  <0> d          27.474  69.184 -25.783  0.00  0.00     0.063 A 
ATOM     13  C8  <0> d          26.117  69.355 -25.583  0.00  0.00     0.036 A 
ATOM     14  C7  <0> d          25.613  69.526 -24.303  0.00  0.00     0.026 A 
ATOM     15 Cl1  <0> d          25.038  69.356 -26.943  0.00  0.00    -0.084 Cl
ATOM     16  C6  <0> d          26.461  69.520 -23.216  0.00  0.00     0.038 A 
BRANCH  11  17
ATOM     17  O2  <0> d          29.674  69.014 -24.896  0.00  0.00    -0.353 OA
ATOM     18  C11 <0> d          30.134  67.679 -25.120  0.00  0.00     0.210 C 
ENDBRANCH  11  17
ENDBRANCH   9  10
ENDBRANCH   7   8
BRANCH   4  19
ATOM     19  C12 <0> d          30.406  73.361 -18.598  0.00  0.00     0.061 A 
ATOM     20  C17 <0> d          31.089  73.288 -17.392  0.00  0.00     0.032 A 
ATOM     21  C16 <0> d          31.032  74.345 -16.503  0.00  0.00     0.002 A 
ATOM     22  C15 <0> d          30.295  75.472 -16.814  0.00  0.00     0.000 A 
ATOM     23  C14 <0> d          29.615  75.548 -18.015  0.00  0.00     0.002 A 
ATOM     24  C13 <0> d          29.672  74.498 -18.911  0.00  0.00     0.032 A 
ENDBRANCH   4  19
TORSDOF 4
ENDMDL
MODEL 10
REMARK VINA RESULT:      -5.8     24.116     27.339
REMARK  4 active torsions:
REMARK  status: ('A' for Active; 'I' for Inactive)
REMARK    1  A    between atoms: N2_4  and  C12_19 
REMARK    2  A    between atoms: C4_7  and  N3_8 
REMARK    3  A    between atoms: N4_9  and  C5_10 
REMARK    4  A    between atoms: C10_15  and  O2_16 
ROOT
ATOM      1  C1  <0> d           6.756  49.999 -29.340  0.00  0.00     0.070 C 
ATOM      2  C2  <0> d           7.504  50.923 -28.413  0.00  0.00     0.065 A 
ATOM      3  N1  <0> d           8.233  51.911 -28.757  0.00  0.00    -0.171 NA
ATOM      4  N2  <0> d           8.794  52.580 -27.672  0.00  0.00    -0.199 N 
ATOM      5  C3  <0> d           8.425  52.011 -26.505  0.00  0.00     0.277 A 
ATOM      6  O1  <0> d           8.740  52.352 -25.386  0.00  0.00    -0.268 OA
ATOM      7  C4  <0> d           7.529  50.852 -26.901  0.00  0.00     0.273 A 
ENDROOT
BRANCH   7   8
ATOM      8  N3  <0> d           6.182  51.032 -26.354  0.00  0.00    -0.171 NA
ATOM      9  N4  <0> d           5.507  52.019 -26.683  0.00  0.00    -0.152 NA
BRANCH   9  10
ATOM     10  C5  <0> d           4.250  52.187 -26.171  0.00  0.00     0.112 A 
ATOM     11  C10 <0> d           3.494  53.318 -26.514  0.00  0.00     0.100 A 
ATOM     12  C9  <0> d           2.222  53.479 -25.991  0.00  0.00     0.063 A 
ATOM     13  C8  <0> d           1.699  52.527 -25.135  0.00  0.00     0.036 A 
ATOM     14  C7  <0> d           2.443  51.408 -24.793  0.00  0.00     0.026 A 
ATOM     15 Cl1  <0> d           0.103  52.737 -24.483  0.00  0.00    -0.084 Cl
ATOM     16  C6  <0> d           3.708  51.230 -25.310  0.00  0.00     0.038 A 
BRANCH  11  17
ATOM     17  O2  <0> d           4.010  54.251 -27.355  0.00  0.00    -0.353 OA
ATOM     18  C11 <0> d           4.261  55.548 -26.807  0.00  0.00     0.210 C 
ENDBRANCH  11  17
ENDBRANCH   9  10
ENDBRANCH   7   8
BRANCH   4  19
ATOM     19  C12 <0> d           9.633  53.696 -27.778  0.00  0.00     0.061 A 
ATOM     20  C17 <0> d          11.005  53.525 -27.906  0.00  0.00     0.032 A 
ATOM     21  C16 <0> d          11.829  54.629 -28.011  0.00  0.00     0.002 A 
ATOM     22  C15 <0> d          11.290  55.901 -27.989  0.00  0.00     0.000 A 
ATOM     23  C14 <0> d           9.924  56.074 -27.864  0.00  0.00     0.002 A 
ATOM     24  C13 <0> d           9.093  54.975 -27.763  0.00  0.00     0.032 A 
ENDBRANCH   4  19
TORSDOF 4
ENDMDL
