MODEL 1
REMARK VINA RESULT:      -5.9      0.000      0.000
REMARK  0 active torsions:
REMARK  status: ('A' for Active; 'I' for Inactive)
ROOT
ATOM      1  C1  <0> d          13.110  50.448 -27.147  0.00  0.00     0.042 C 
ATOM      2  C2  <0> d          12.371  49.467 -28.040  0.00  0.00     0.036 A 
ATOM      3  C3  <0> d          11.125  48.688 -27.479  0.00  0.00     0.036 A 
ATOM      4  C4  <0> d          12.450  47.969 -27.790  0.00  0.00     0.122 A 
ATOM      5 Cl1  <0> d          12.486  46.891 -29.236  0.00  0.00    -0.101 Cl
ATOM      6 Cl2  <0> d          13.440  47.415 -26.389  0.00  0.00    -0.101 Cl
ATOM      7  C5  <0> d          10.879  48.971 -25.979  0.00  0.00     0.042 C 
ATOM      8  C6  <0> d          10.562  50.405 -25.908  0.00  0.00    -0.075 C 
ATOM      9  C7  <0> d           9.433  50.966 -26.359  0.00  0.00     0.003 C 
ATOM     10  C8  <0> d           9.412  52.407 -26.589  0.00  0.00     0.000 C 
ATOM     11  C9  <0> d          10.418  53.114 -27.103  0.00  0.00     0.000 C 
ATOM     12  C10 <0> d          11.706  52.534 -27.500  0.00  0.00     0.003 C 
ATOM     13  C11 <0> d          12.209  51.585 -26.741  0.00  0.00    -0.075 C 
ATOM     14  C12 <0> d          11.492  51.454 -25.388  0.00  0.00     0.068 C 
ENDROOT
TORSDOF 0
ENDMDL
MODEL 2
REMARK VINA RESULT:      -5.9      4.086      5.591
REMARK  0 active torsions:
REMARK  status: ('A' for Active; 'I' for Inactive)
ROOT
ATOM      1  C1  <0> d          11.951  53.840 -28.625  0.00  0.00     0.042 C 
ATOM      2  C2  <0> d          11.319  55.041 -27.943  0.00  0.00     0.036 A 
ATOM      3  C3  <0> d           9.777  55.037 -27.631  0.00  0.00     0.036 A 
ATOM      4  C4  <0> d          10.381  55.966 -28.699  0.00  0.00     0.122 A 
ATOM      5 Cl1  <0> d          10.465  57.726 -28.313  0.00  0.00    -0.101 Cl
ATOM      6 Cl2  <0> d          10.042  55.571 -30.426  0.00  0.00    -0.101 Cl
ATOM      7  C5  <0> d           9.065  53.784 -28.190  0.00  0.00     0.042 C 
ATOM      8  C6  <0> d           9.658  52.652 -27.463  0.00  0.00    -0.075 C 
ATOM      9  C7  <0> d           9.456  52.380 -26.167  0.00  0.00     0.003 C 
ATOM     10  C8  <0> d          10.390  51.490 -25.485  0.00  0.00     0.000 C 
ATOM     11  C9  <0> d          11.710  51.478 -25.673  0.00  0.00     0.000 C 
ATOM     12  C10 <0> d          12.410  52.360 -26.614  0.00  0.00     0.003 C 
ATOM     13  C11 <0> d          11.827  52.609 -27.767  0.00  0.00    -0.075 C 
ATOM     14  C12 <0> d          10.634  51.683 -28.051  0.00  0.00     0.068 C 
ENDROOT
TORSDOF 0
ENDMDL
MODEL 3
REMARK VINA RESULT:      -5.4     25.973     27.324
REMARK  0 active torsions:
REMARK  status: ('A' for Active; 'I' for Inactive)
ROOT
ATOM      1  C1  <0> d          26.750  58.051  -5.981  0.00  0.00     0.042 C 
ATOM      2  C2  <0> d          26.851  58.022  -7.496  0.00  0.00     0.036 A 
ATOM      3  C3  <0> d          28.258  57.858  -8.180  0.00  0.00     0.036 A 
ATOM      4  C4  <0> d          27.473  59.179  -8.261  0.00  0.00     0.122 A 
ATOM      5 Cl1  <0> d          26.738  59.608  -9.852  0.00  0.00    -0.101 Cl
ATOM      6 Cl2  <0> d          28.093  60.571  -7.297  0.00  0.00    -0.101 Cl
ATOM      7  C5  <0> d          29.416  57.855  -7.155  0.00  0.00     0.042 C 
ATOM      8  C6  <0> d          29.193  56.659  -6.330  0.00  0.00    -0.075 C 
ATOM      9  C7  <0> d          29.352  55.396  -6.748  0.00  0.00     0.003 C 
ATOM     10  C8  <0> d          28.729  54.322  -5.981  0.00  0.00     0.000 C 
ATOM     11  C9  <0> d          27.523  54.385  -5.417  0.00  0.00     0.000 C 
ATOM     12  C10 <0> d          26.651  55.564  -5.481  0.00  0.00     0.003 C 
ATOM     13  C11 <0> d          27.217  56.748  -5.388  0.00  0.00    -0.075 C 
ATOM     14  C12 <0> d          28.681  56.680  -4.925  0.00  0.00     0.068 C 
ENDROOT
TORSDOF 0
ENDMDL
MODEL 4
REMARK VINA RESULT:      -5.3     27.988     29.348
REMARK  0 active torsions:
REMARK  status: ('A' for Active; 'I' for Inactive)
ROOT
ATOM      1  C1  <0> d          30.321  69.557 -20.243  0.00  0.00     0.042 C 
ATOM      2  C2  <0> d          31.593  69.853 -21.017  0.00  0.00     0.036 A 
ATOM      3  C3  <0> d          31.713  71.190 -21.838  0.00  0.00     0.036 A 
ATOM      4  C4  <0> d          31.610  69.823 -22.537  0.00  0.00     0.122 A 
ATOM      5 Cl1  <0> d          33.097  69.188 -23.335  0.00  0.00    -0.101 Cl
ATOM      6 Cl2  <0> d          30.060  69.437 -23.373  0.00  0.00    -0.101 Cl
ATOM      7  C5  <0> d          30.402  72.011 -21.823  0.00  0.00     0.042 C 
ATOM      8  C6  <0> d          30.200  72.382 -20.415  0.00  0.00    -0.075 C 
ATOM      9  C7  <0> d          30.945  73.267 -19.739  0.00  0.00     0.003 C 
ATOM     10  C8  <0> d          30.898  73.250 -18.280  0.00  0.00     0.000 C 
ATOM     11  C9  <0> d          30.842  72.149 -17.530  0.00  0.00     0.000 C 
ATOM     12  C10 <0> d          30.806  70.788 -18.076  0.00  0.00     0.003 C 
ATOM     13  C11 <0> d          30.097  70.586 -19.166  0.00  0.00    -0.075 C 
ATOM     14  C12 <0> d          29.178  71.767 -19.514  0.00  0.00     0.068 C 
ENDROOT
TORSDOF 0
ENDMDL
MODEL 5
REMARK VINA RESULT:      -5.3     26.392     27.761
REMARK  0 active torsions:
REMARK  status: ('A' for Active; 'I' for Inactive)
ROOT
ATOM      1  C1  <0> d          29.316  70.692 -22.361  0.00  0.00     0.042 C 
ATOM      2  C2  <0> d          30.600  69.920 -22.110  0.00  0.00     0.036 A 
ATOM      3  C3  <0> d          31.229  69.904 -20.668  0.00  0.00     0.036 A 
ATOM      4  C4  <0> d          31.907  70.645 -21.835  0.00  0.00     0.122 A 
ATOM      5 Cl1  <0> d          33.413  69.920 -22.511  0.00  0.00    -0.101 Cl
ATOM      6 Cl2  <0> d          31.863  72.448 -21.806  0.00  0.00    -0.101 Cl
ATOM      7  C5  <0> d          30.464  70.815 -19.680  0.00  0.00     0.042 C 
ATOM      8  C6  <0> d          29.123  70.221 -19.574  0.00  0.00    -0.075 C 
ATOM      9  C7  <0> d          28.841  69.061 -18.967  0.00  0.00     0.003 C 
ATOM     10  C8  <0> d          27.575  68.402 -19.271  0.00  0.00     0.000 C 
ATOM     11  C9  <0> d          27.015  68.343 -20.479  0.00  0.00     0.000 C 
ATOM     12  C10 <0> d          27.596  68.952 -21.681  0.00  0.00     0.003 C 
ATOM     13  C11 <0> d          28.181  70.123 -21.550  0.00  0.00    -0.075 C 
ATOM     14  C12 <0> d          27.890  70.793 -20.199  0.00  0.00     0.068 C 
ENDROOT
TORSDOF 0
ENDMDL
MODEL 6
REMARK VINA RESULT:      -5.2     12.033     13.552
REMARK  0 active torsions:
REMARK  status: ('A' for Active; 'I' for Inactive)
ROOT
ATOM      1  C1  <0> d          22.719  53.462 -31.234  0.00  0.00     0.042 C 
ATOM      2  C2  <0> d          23.898  54.200 -31.845  0.00  0.00     0.036 A 
ATOM      3  C3  <0> d          23.884  55.771 -31.913  0.00  0.00     0.036 A 
ATOM      4  C4  <0> d          23.769  54.909 -33.183  0.00  0.00     0.122 A 
ATOM      5 Cl1  <0> d          25.196  54.865 -34.284  0.00  0.00    -0.101 Cl
ATOM      6 Cl2  <0> d          22.162  54.849 -33.999  0.00  0.00    -0.101 Cl
ATOM      7  C5  <0> d          22.548  56.371 -31.415  0.00  0.00     0.042 C 
ATOM      8  C6  <0> d          22.469  55.998 -29.995  0.00  0.00    -0.075 C 
ATOM      9  C7  <0> d          23.239  56.503 -29.022  0.00  0.00     0.003 C 
ATOM     10  C8  <0> d          23.334  55.779 -27.759  0.00  0.00     0.000 C 
ATOM     11  C9  <0> d          23.396  54.453 -27.640  0.00  0.00     0.000 C 
ATOM     12  C10 <0> d          23.362  53.528 -28.778  0.00  0.00     0.003 C 
ATOM     13  C11 <0> d          22.560  53.820 -29.779  0.00  0.00    -0.075 C 
ATOM     14  C12 <0> d          21.565  54.941 -29.445  0.00  0.00     0.068 C 
ENDROOT
TORSDOF 0
ENDMDL
MODEL 7
REMARK VINA RESULT:      -5.2     11.601     12.867
REMARK  0 active torsions:
REMARK  status: ('A' for Active; 'I' for Inactive)
ROOT
ATOM      1  C1  <0> d          24.069  55.604 -31.385  0.00  0.00     0.042 C 
ATOM      2  C2  <0> d          23.924  54.093 -31.356  0.00  0.00     0.036 A 
ATOM      3  C3  <0> d          23.158  53.406 -30.166  0.00  0.00     0.036 A 
ATOM      4  C4  <0> d          24.680  53.254 -30.339  0.00  0.00     0.122 A 
ATOM      5 Cl1  <0> d          25.293  51.648 -30.885  0.00  0.00    -0.101 Cl
ATOM      6 Cl2  <0> d          25.738  54.127 -29.169  0.00  0.00    -0.101 Cl
ATOM      7  C5  <0> d          22.729  54.419 -29.078  0.00  0.00     0.042 C 
ATOM      8  C6  <0> d          21.775  55.316 -29.747  0.00  0.00    -0.075 C 
ATOM      9  C7  <0> d          20.541  54.973 -30.137  0.00  0.00     0.003 C 
ATOM     10  C8  <0> d          19.860  55.809 -31.121  0.00  0.00     0.000 C 
ATOM     11  C9  <0> d          20.445  56.379 -32.174  0.00  0.00     0.000 C 
ATOM     12  C10 <0> d          21.873  56.253 -32.484  0.00  0.00     0.003 C 
ATOM     13  C11 <0> d          22.721  56.270 -31.478  0.00  0.00    -0.075 C 
ATOM     14  C12 <0> d          22.078  56.721 -30.157  0.00  0.00     0.068 C 
ENDROOT
TORSDOF 0
ENDMDL
MODEL 8
REMARK VINA RESULT:      -5.2     44.952     46.296
REMARK  0 active torsions:
REMARK  status: ('A' for Active; 'I' for Inactive)
ROOT
ATOM      1  C1  <0> d          45.675  77.900 -34.480  0.00  0.00     0.042 C 
ATOM      2  C2  <0> d          46.652  78.300 -35.573  0.00  0.00     0.036 A 
ATOM      3  C3  <0> d          47.633  79.507 -35.337  0.00  0.00     0.036 A 
ATOM      4  C4  <0> d          46.474  79.596 -36.346  0.00  0.00     0.122 A 
ATOM      5 Cl1  <0> d          46.900  79.579 -38.098  0.00  0.00    -0.101 Cl
ATOM      6 Cl2  <0> d          45.070  80.638 -35.902  0.00  0.00    -0.101 Cl
ATOM      7  C5  <0> d          47.376  80.222 -33.990  0.00  0.00     0.042 C 
ATOM      8  C6  <0> d          47.672  79.215 -32.961  0.00  0.00    -0.075 C 
ATOM      9  C7  <0> d          48.894  78.757 -32.662  0.00  0.00     0.003 C 
ATOM     10  C8  <0> d          49.011  77.503 -31.924  0.00  0.00     0.000 C 
ATOM     11  C9  <0> d          48.240  76.431 -32.110  0.00  0.00     0.000 C 
ATOM     12  C10 <0> d          47.147  76.371 -33.087  0.00  0.00     0.003 C 
ATOM     13  C11 <0> d          46.408  77.448 -33.245  0.00  0.00    -0.075 C 
ATOM     14  C12 <0> d          46.638  78.501 -32.150  0.00  0.00     0.068 C 
ENDROOT
TORSDOF 0
ENDMDL
MODEL 9
REMARK VINA RESULT:      -5.1     11.558     13.243
REMARK  0 active torsions:
REMARK  status: ('A' for Active; 'I' for Inactive)
ROOT
ATOM      1  C1  <0> d          22.058  53.477 -31.073  0.00  0.00     0.042 C 
ATOM      2  C2  <0> d          21.923  54.907 -31.568  0.00  0.00     0.036 A 
ATOM      3  C3  <0> d          21.948  56.094 -30.536  0.00  0.00     0.036 A 
ATOM      4  C4  <0> d          20.664  55.713 -31.296  0.00  0.00     0.122 A 
ATOM      5 Cl1  <0> d          20.107  56.838 -32.591  0.00  0.00    -0.101 Cl
ATOM      6 Cl2  <0> d          19.353  54.909 -30.355  0.00  0.00    -0.101 Cl
ATOM      7  C5  <0> d          22.002  55.601 -29.070  0.00  0.00     0.042 C 
ATOM      8  C6  <0> d          23.288  54.898 -28.953  0.00  0.00    -0.075 C 
ATOM      9  C7  <0> d          24.490  55.487 -28.964  0.00  0.00     0.003 C 
ATOM     10  C8  <0> d          25.668  54.668 -29.236  0.00  0.00     0.000 C 
ATOM     11  C9  <0> d          25.722  53.681 -30.130  0.00  0.00     0.000 C 
ATOM     12  C10 <0> d          24.586  53.268 -30.962  0.00  0.00     0.003 C 
ATOM     13  C11 <0> d          23.393  53.264 -30.408  0.00  0.00    -0.075 C 
ATOM     14  C12 <0> d          23.438  53.411 -28.880  0.00  0.00     0.068 C 
ENDROOT
TORSDOF 0
ENDMDL
MODEL 10
REMARK VINA RESULT:      -5.0     26.737     28.184
REMARK  0 active torsions:
REMARK  status: ('A' for Active; 'I' for Inactive)
ROOT
ATOM      1  C1  <0> d          29.887  57.242  -5.123  0.00  0.00     0.042 C 
ATOM      2  C2  <0> d          29.986  58.498  -5.970  0.00  0.00     0.036 A 
ATOM      3  C3  <0> d          29.315  58.535  -7.392  0.00  0.00     0.036 A 
ATOM      4  C4  <0> d          30.845  58.531  -7.223  0.00  0.00     0.122 A 
ATOM      5 Cl1  <0> d          31.721  60.065  -7.586  0.00  0.00    -0.101 Cl
ATOM      6 Cl2  <0> d          31.723  57.018  -7.664  0.00  0.00    -0.101 Cl
ATOM      7  C5  <0> d          28.705  57.170  -7.792  0.00  0.00     0.042 C 
ATOM      8  C6  <0> d          27.634  56.931  -6.813  0.00  0.00    -0.075 C 
ATOM      9  C7  <0> d          26.480  57.607  -6.755  0.00  0.00     0.003 C 
ATOM     10  C8  <0> d          25.695  57.548  -5.526  0.00  0.00     0.000 C 
ATOM     11  C9  <0> d          26.203  57.560  -4.294  0.00  0.00     0.000 C 
ATOM     12  C10 <0> d          27.640  57.622  -4.002  0.00  0.00     0.003 C 
ATOM     13  C11 <0> d          28.451  56.939  -4.780  0.00  0.00    -0.075 C 
ATOM     14  C12 <0> d          27.715  55.945  -5.692  0.00  0.00     0.068 C 
ENDROOT
TORSDOF 0
ENDMDL
