MODEL 1
REMARK VINA RESULT:      -6.8      0.000      0.000
REMARK  5 active torsions:
REMARK  status: ('A' for Active; 'I' for Inactive)
REMARK    1  A    between atoms: C2_2  and  N1_3 
REMARK    2  A    between atoms: C5_7  and  C6_8 
REMARK    3  A    between atoms: C8_10  and  O3_17 
REMARK    4  A    between atoms: C9_11  and  O2_16 
REMARK    5  A    between atoms: O3_17  and  C12_18 
ROOT
ATOM      1  C6  <0> d          31.509  70.538 -21.475  0.00  0.00    -0.013 A 
ATOM      2  C7  <0> d          32.087  71.679 -22.045  0.00  0.00     0.052 A 
ATOM      3  C8  <0> d          31.930  72.907 -21.434  0.00  0.00     0.104 A 
ATOM      4  C9  <0> d          31.200  73.010 -20.250  0.00  0.00     0.118 A 
ATOM      5  C10 <0> d          30.620  71.881 -19.685  0.00  0.00     0.065 A 
ATOM      6  C11 <0> d          30.773  70.650 -20.288  0.00  0.00     0.041 A 
ATOM      7 Br1  <0> d          29.988  69.114 -19.514  0.00  0.00    -0.049 Br
ATOM      8 Br2  <0> d          29.626  72.032 -18.084  0.00  0.00    -0.047 Br
ENDROOT
BRANCH   1   9
ATOM      9  C5  <0> d          31.674  69.229 -22.118  0.00  0.00     0.037 C 
ATOM     10  C4  <0> d          30.930  68.910 -23.209  0.00  0.00     0.079 A 
ATOM     11  C3  <0> d          29.803  69.638 -23.824  0.00  0.00     0.268 A 
ATOM     12  S1  <0> d          31.042  67.491 -24.289  0.00  0.00    -0.023 SA
ATOM     13  N1  <0> d          29.259  69.089 -24.898  0.00  0.00    -0.275 N 
ATOM     14  O1  <0> d          29.396  70.690 -23.368  0.00  0.00    -0.266 OA
ATOM     15  C14 <0> d          29.708  67.920 -25.396  0.00  0.00     0.293 A 
ATOM     16  O4  <0> d          29.303  67.306 -26.364  0.00  0.00    -0.259 OA
BRANCH  13  17
ATOM     17  C2  <0> d          28.140  69.766 -25.557  0.00  0.00     0.132 C 
ATOM     18  C1  <0> d          26.826  69.341 -24.898  0.00  0.00     0.027 C 
ENDBRANCH  13  17
ENDBRANCH   1   9
BRANCH   3  19
ATOM     19  O3  <0> d          32.490  74.018 -21.985  0.00  0.00    -0.349 OA
BRANCH  19  20
ATOM     20  C12 <0> d          33.701  74.494 -21.395  0.00  0.00     0.171 C 
ATOM     21  C13 <0> d          33.599  76.003 -21.169  0.00  0.00     0.034 C 
ENDBRANCH  19  20
ENDBRANCH   3  19
BRANCH   4  22
ATOM     22  O2  <0> d          31.051  74.219 -19.649  0.00  0.00    -0.357 OA
ATOM     23  H8  <0> d          31.807  74.812 -19.765  0.00  0.00     0.218 HD
ENDBRANCH   4  22
TORSDOF 5
ENDMDL
MODEL 2
REMARK VINA RESULT:      -6.7      4.149      6.877
REMARK  5 active torsions:
REMARK  status: ('A' for Active; 'I' for Inactive)
REMARK    1  A    between atoms: C2_2  and  N1_3 
REMARK    2  A    between atoms: C5_7  and  C6_8 
REMARK    3  A    between atoms: C8_10  and  O3_17 
REMARK    4  A    between atoms: C9_11  and  O2_16 
REMARK    5  A    between atoms: O3_17  and  C12_18 
ROOT
ATOM      1  C6  <0> d          28.979  70.035 -23.392  0.00  0.00    -0.013 A 
ATOM      2  C7  <0> d          28.030  69.860 -24.407  0.00  0.00     0.052 A 
ATOM      3  C8  <0> d          28.264  68.948 -25.417  0.00  0.00     0.104 A 
ATOM      4  C9  <0> d          29.441  68.199 -25.423  0.00  0.00     0.118 A 
ATOM      5  C10 <0> d          30.387  68.375 -24.421  0.00  0.00     0.065 A 
ATOM      6  C11 <0> d          30.161  69.283 -23.408  0.00  0.00     0.041 A 
ATOM      7 Br1  <0> d          31.447  69.515 -22.041  0.00  0.00    -0.049 Br
ATOM      8 Br2  <0> d          31.983  67.361 -24.442  0.00  0.00    -0.047 Br
ENDROOT
BRANCH   1   9
ATOM      9  C5  <0> d          28.736  71.001 -22.315  0.00  0.00     0.037 C 
ATOM     10  C4  <0> d          28.250  70.577 -21.119  0.00  0.00     0.079 A 
ATOM     11  C3  <0> d          27.753  69.245 -20.725  0.00  0.00     0.268 A 
ATOM     12  S1  <0> d          28.031  71.482 -19.593  0.00  0.00    -0.023 SA
ATOM     13  N1  <0> d          27.337  69.113 -19.476  0.00  0.00    -0.275 N 
ATOM     14  O1  <0> d          27.728  68.314 -21.508  0.00  0.00    -0.266 OA
ATOM     15  C14 <0> d          27.360  70.149 -18.613  0.00  0.00     0.293 A 
ATOM     16  O4  <0> d          27.008  70.169 -17.449  0.00  0.00    -0.259 OA
BRANCH  13  17
ATOM     17  C2  <0> d          26.837  67.813 -19.023  0.00  0.00     0.132 C 
ATOM     18  C1  <0> d          25.325  67.741 -19.249  0.00  0.00     0.027 C 
ENDBRANCH  13  17
ENDBRANCH   1   9
BRANCH   3  19
ATOM     19  O3  <0> d          27.344  68.776 -26.405  0.00  0.00    -0.349 OA
BRANCH  19  20
ATOM     20  C12 <0> d          27.408  69.676 -27.513  0.00  0.00     0.171 C 
ATOM     21  C13 <0> d          27.408  68.878 -28.818  0.00  0.00     0.034 C 
ENDBRANCH  19  20
ENDBRANCH   3  19
BRANCH   4  22
ATOM     22  O2  <0> d          29.665  67.299 -26.416  0.00  0.00    -0.357 OA
ATOM     23  H8  <0> d          30.472  66.779 -26.300  0.00  0.00     0.218 HD
ENDBRANCH   4  22
TORSDOF 5
ENDMDL
MODEL 3
REMARK VINA RESULT:      -6.1      4.502      6.531
REMARK  5 active torsions:
REMARK  status: ('A' for Active; 'I' for Inactive)
REMARK    1  A    between atoms: C2_2  and  N1_3 
REMARK    2  A    between atoms: C5_7  and  C6_8 
REMARK    3  A    between atoms: C8_10  and  O3_17 
REMARK    4  A    between atoms: C9_11  and  O2_16 
REMARK    5  A    between atoms: O3_17  and  C12_18 
ROOT
ATOM      1  C6  <0> d          28.586  70.391 -23.470  0.00  0.00    -0.013 A 
ATOM      2  C7  <0> d          29.757  69.623 -23.500  0.00  0.00     0.052 A 
ATOM      3  C8  <0> d          30.007  68.795 -24.576  0.00  0.00     0.104 A 
ATOM      4  C9  <0> d          29.098  68.727 -25.632  0.00  0.00     0.118 A 
ATOM      5  C10 <0> d          27.933  69.484 -25.602  0.00  0.00     0.065 A 
ATOM      6  C11 <0> d          27.675  70.315 -24.532  0.00  0.00     0.041 A 
ATOM      7 Br1  <0> d          26.093  71.348 -24.496  0.00  0.00    -0.049 Br
ATOM      8 Br2  <0> d          26.704  69.380 -27.035  0.00  0.00    -0.047 Br
ENDROOT
BRANCH   1   9
ATOM      9  C5  <0> d          28.315  71.275 -22.330  0.00  0.00     0.037 C 
ATOM     10  C4  <0> d          27.923  70.748 -21.141  0.00  0.00     0.079 A 
ATOM     11  C3  <0> d          27.556  69.359 -20.803  0.00  0.00     0.268 A 
ATOM     12  S1  <0> d          27.702  71.548 -19.557  0.00  0.00    -0.023 SA
ATOM     13  N1  <0> d          27.211  69.126 -19.547  0.00  0.00    -0.275 N 
ATOM     14  O1  <0> d          27.571  68.473 -21.637  0.00  0.00    -0.266 OA
ATOM     15  C14 <0> d          27.189  70.112 -18.628  0.00  0.00     0.293 A 
ATOM     16  O4  <0> d          26.892  70.040 -17.451  0.00  0.00    -0.259 OA
BRANCH  13  17
ATOM     17  C2  <0> d          26.842  67.766 -19.148  0.00  0.00     0.132 C 
ATOM     18  C1  <0> d          25.330  67.581 -19.304  0.00  0.00     0.027 C 
ENDBRANCH  13  17
ENDBRANCH   1   9
BRANCH   3  19
ATOM     19  O3  <0> d          31.142  68.047 -24.609  0.00  0.00    -0.349 OA
BRANCH  19  20
ATOM     20  C12 <0> d          31.998  68.116 -23.466  0.00  0.00     0.171 C 
ATOM     21  C13 <0> d          33.251  68.920 -23.815  0.00  0.00     0.034 C 
ENDBRANCH  19  20
ENDBRANCH   3  19
BRANCH   4  22
ATOM     22  O2  <0> d          29.350  67.915 -26.691  0.00  0.00    -0.357 OA
ATOM     23  H8  <0> d          30.289  67.726 -26.828  0.00  0.00     0.218 HD
ENDBRANCH   4  22
TORSDOF 5
ENDMDL
MODEL 4
REMARK VINA RESULT:      -6.0      5.929      8.205
REMARK  5 active torsions:
REMARK  status: ('A' for Active; 'I' for Inactive)
REMARK    1  A    between atoms: C2_2  and  N1_3 
REMARK    2  A    between atoms: C5_7  and  C6_8 
REMARK    3  A    between atoms: C8_10  and  O3_17 
REMARK    4  A    between atoms: C9_11  and  O2_16 
REMARK    5  A    between atoms: O3_17  and  C12_18 
ROOT
ATOM      1  C6  <0> d          25.426  69.460 -25.899  0.00  0.00    -0.013 A 
ATOM      2  C7  <0> d          26.144  69.396 -27.100  0.00  0.00     0.052 A 
ATOM      3  C8  <0> d          27.523  69.328 -27.074  0.00  0.00     0.104 A 
ATOM      4  C9  <0> d          28.199  69.318 -25.854  0.00  0.00     0.118 A 
ATOM      5  C10 <0> d          27.491  69.388 -24.661  0.00  0.00     0.065 A 
ATOM      6  C11 <0> d          26.113  69.456 -24.677  0.00  0.00     0.041 A 
ATOM      7 Br1  <0> d          25.151  69.544 -23.052  0.00  0.00    -0.049 Br
ATOM      8 Br2  <0> d          28.416  69.382 -23.012  0.00  0.00    -0.047 Br
ENDROOT
BRANCH   1   9
ATOM      9  C5  <0> d          23.961  69.532 -25.919  0.00  0.00     0.037 C 
ATOM     10  C4  <0> d          23.341  70.733 -26.060  0.00  0.00     0.079 A 
ATOM     11  C3  <0> d          23.914  72.093 -26.053  0.00  0.00     0.268 A 
ATOM     12  S1  <0> d          21.608  71.099 -26.297  0.00  0.00    -0.023 SA
ATOM     13  N1  <0> d          23.065  73.094 -26.217  0.00  0.00    -0.275 N 
ATOM     14  O1  <0> d          25.107  72.284 -25.906  0.00  0.00    -0.266 OA
ATOM     15  C14 <0> d          21.743  72.878 -26.373  0.00  0.00     0.293 A 
ATOM     16  O4  <0> d          20.858  73.697 -26.528  0.00  0.00    -0.259 OA
BRANCH  13  17
ATOM     17  C2  <0> d          23.573  74.467 -26.225  0.00  0.00     0.132 C 
ATOM     18  C1  <0> d          23.883  74.888 -27.664  0.00  0.00     0.027 C 
ENDBRANCH  13  17
ENDBRANCH   1   9
BRANCH   3  19
ATOM     19  O3  <0> d          28.222  69.266 -28.239  0.00  0.00    -0.349 OA
BRANCH  19  20
ATOM     20  C12 <0> d          27.472  69.363 -29.452  0.00  0.00     0.171 C 
ATOM     21  C13 <0> d          27.655  70.757 -30.054  0.00  0.00     0.034 C 
ENDBRANCH  19  20
ENDBRANCH   3  19
BRANCH   4  22
ATOM     22  O2  <0> d          29.555  69.246 -25.833  0.00  0.00    -0.357 OA
ATOM     23  H8  <0> d          29.974  69.464 -26.677  0.00  0.00     0.218 HD
ENDBRANCH   4  22
TORSDOF 5
ENDMDL
MODEL 5
REMARK VINA RESULT:      -6.0      4.917      7.236
REMARK  5 active torsions:
REMARK  status: ('A' for Active; 'I' for Inactive)
REMARK    1  A    between atoms: C2_2  and  N1_3 
REMARK    2  A    between atoms: C5_7  and  C6_8 
REMARK    3  A    between atoms: C8_10  and  O3_17 
REMARK    4  A    between atoms: C9_11  and  O2_16 
REMARK    5  A    between atoms: O3_17  and  C12_18 
ROOT
ATOM      1  C6  <0> d          26.019  69.862 -24.549  0.00  0.00    -0.013 A 
ATOM      2  C7  <0> d          27.221  69.238 -24.907  0.00  0.00     0.052 A 
ATOM      3  C8  <0> d          28.005  69.781 -25.907  0.00  0.00     0.104 A 
ATOM      4  C9  <0> d          27.603  70.949 -26.554  0.00  0.00     0.118 A 
ATOM      5  C10 <0> d          26.408  71.566 -26.205  0.00  0.00     0.065 A 
ATOM      6  C11 <0> d          25.619  71.032 -25.207  0.00  0.00     0.041 A 
ATOM      7 Br1  <0> d          23.997  71.878 -24.729  0.00  0.00    -0.049 Br
ATOM      8 Br2  <0> d          25.867  73.146 -27.092  0.00  0.00    -0.047 Br
ENDROOT
BRANCH   1   9
ATOM      9  C5  <0> d          25.182  69.291 -23.487  0.00  0.00     0.037 C 
ATOM     10  C4  <0> d          25.556  69.417 -22.187  0.00  0.00     0.079 A 
ATOM     11  C3  <0> d          26.814  69.936 -21.616  0.00  0.00     0.268 A 
ATOM     12  S1  <0> d          24.662  68.991 -20.698  0.00  0.00    -0.023 SA
ATOM     13  N1  <0> d          26.906  69.945 -20.296  0.00  0.00    -0.275 N 
ATOM     14  O1  <0> d          27.720  70.337 -22.323  0.00  0.00    -0.266 OA
ATOM     15  C14 <0> d          25.904  69.493 -19.517  0.00  0.00     0.293 A 
ATOM     16  O4  <0> d          25.856  69.440 -18.303  0.00  0.00    -0.259 OA
BRANCH  13  17
ATOM     17  C2  <0> d          28.128  70.453 -19.669  0.00  0.00     0.132 C 
ATOM     18  C1  <0> d          29.085  69.290 -19.399  0.00  0.00     0.027 C 
ENDBRANCH  13  17
ENDBRANCH   1   9
BRANCH   3  19
ATOM     19  O3  <0> d          29.172  69.177 -26.258  0.00  0.00    -0.349 OA
BRANCH  19  20
ATOM     20  C12 <0> d          29.787  68.336 -25.279  0.00  0.00     0.171 C 
ATOM     21  C13 <0> d          30.042  66.955 -25.882  0.00  0.00     0.034 C 
ENDBRANCH  19  20
ENDBRANCH   3  19
BRANCH   4  22
ATOM     22  O2  <0> d          28.379  71.482 -27.532  0.00  0.00    -0.357 OA
ATOM     23  H8  <0> d          28.359  70.988 -28.364  0.00  0.00     0.218 HD
ENDBRANCH   4  22
TORSDOF 5
ENDMDL
MODEL 6
REMARK VINA RESULT:      -5.7      4.174      7.650
REMARK  5 active torsions:
REMARK  status: ('A' for Active; 'I' for Inactive)
REMARK    1  A    between atoms: C2_2  and  N1_3 
REMARK    2  A    between atoms: C5_7  and  C6_8 
REMARK    3  A    between atoms: C8_10  and  O3_17 
REMARK    4  A    between atoms: C9_11  and  O2_16 
REMARK    5  A    between atoms: O3_17  and  C12_18 
ROOT
ATOM      1  C6  <0> d          25.319  70.004 -24.973  0.00  0.00    -0.013 A 
ATOM      2  C7  <0> d          25.696  69.286 -26.115  0.00  0.00     0.052 A 
ATOM      3  C8  <0> d          25.630  69.887 -27.356  0.00  0.00     0.104 A 
ATOM      4  C9  <0> d          25.194  71.207 -27.472  0.00  0.00     0.118 A 
ATOM      5  C10 <0> d          24.814  71.919 -26.342  0.00  0.00     0.065 A 
ATOM      6  C11 <0> d          24.877  71.328 -25.097  0.00  0.00     0.041 A 
ATOM      7 Br1  <0> d          24.366  72.302 -23.560  0.00  0.00    -0.049 Br
ATOM      8 Br2  <0> d          24.217  73.706 -26.509  0.00  0.00    -0.047 Br
ENDROOT
BRANCH   1   9
ATOM      9  C5  <0> d          25.388  69.372 -23.650  0.00  0.00     0.037 C 
ATOM     10  C4  <0> d          26.538  69.431 -22.929  0.00  0.00     0.079 A 
ATOM     11  C3  <0> d          27.871  69.928 -23.322  0.00  0.00     0.268 A 
ATOM     12  S1  <0> d          26.854  68.921 -21.245  0.00  0.00    -0.023 SA
ATOM     13  N1  <0> d          28.821  69.867 -22.404  0.00  0.00    -0.275 N 
ATOM     14  O1  <0> d          28.085  70.372 -24.434  0.00  0.00    -0.266 OA
ATOM     15  C14 <0> d          28.582  69.367 -21.175  0.00  0.00     0.293 A 
ATOM     16  O4  <0> d          29.355  69.249 -20.243  0.00  0.00    -0.259 OA
BRANCH  13  17
ATOM     17  C2  <0> d          30.164  70.350 -22.732  0.00  0.00     0.132 C 
ATOM     18  C1  <0> d          31.033  69.173 -23.182  0.00  0.00     0.027 C 
ENDBRANCH  13  17
ENDBRANCH   1   9
BRANCH   3  19
ATOM     19  O3  <0> d          25.995  69.192 -28.468  0.00  0.00    -0.349 OA
BRANCH  19  20
ATOM     20  C12 <0> d          27.396  69.070 -28.725  0.00  0.00     0.171 C 
ATOM     21  C13 <0> d          27.770  69.936 -29.929  0.00  0.00     0.034 C 
ENDBRANCH  19  20
ENDBRANCH   3  19
BRANCH   4  22
ATOM     22  O2  <0> d          25.136  71.795 -28.695  0.00  0.00    -0.357 OA
ATOM     23  H8  <0> d          24.806  72.705 -28.678  0.00  0.00     0.218 HD
ENDBRANCH   4  22
TORSDOF 5
ENDMDL
MODEL 7
REMARK VINA RESULT:      -5.7      3.636      6.615
REMARK  5 active torsions:
REMARK  status: ('A' for Active; 'I' for Inactive)
REMARK    1  A    between atoms: C2_2  and  N1_3 
REMARK    2  A    between atoms: C5_7  and  C6_8 
REMARK    3  A    between atoms: C8_10  and  O3_17 
REMARK    4  A    between atoms: C9_11  and  O2_16 
REMARK    5  A    between atoms: O3_17  and  C12_18 
ROOT
ATOM      1  C6  <0> d          27.775  69.157 -22.744  0.00  0.00    -0.013 A 
ATOM      2  C7  <0> d          28.840  68.570 -23.439  0.00  0.00     0.052 A 
ATOM      3  C8  <0> d          29.130  68.979 -24.725  0.00  0.00     0.104 A 
ATOM      4  C9  <0> d          28.368  69.979 -25.329  0.00  0.00     0.118 A 
ATOM      5  C10 <0> d          27.307  70.559 -24.645  0.00  0.00     0.065 A 
ATOM      6  C11 <0> d          27.010  70.157 -23.359  0.00  0.00     0.041 A 
ATOM      7 Br1  <0> d          25.571  70.954 -22.427  0.00  0.00    -0.049 Br
ATOM      8 Br2  <0> d          26.274  71.909 -25.474  0.00  0.00    -0.047 Br
ENDROOT
BRANCH   1   9
ATOM      9  C5  <0> d          27.462  68.728 -21.376  0.00  0.00     0.037 C 
ATOM     10  C4  <0> d          28.065  69.333 -20.320  0.00  0.00     0.079 A 
ATOM     11  C3  <0> d          29.163  70.319 -20.301  0.00  0.00     0.268 A 
ATOM     12  S1  <0> d          27.751  69.148 -18.570  0.00  0.00    -0.023 SA
ATOM     13  N1  <0> d          29.555  70.748 -19.113  0.00  0.00    -0.275 N 
ATOM     14  O1  <0> d          29.680  70.719 -21.328  0.00  0.00    -0.266 OA
ATOM     15  C14 <0> d          28.984  70.297 -17.978  0.00  0.00     0.293 A 
ATOM     16  O4  <0> d          29.245  70.599 -16.830  0.00  0.00    -0.259 OA
BRANCH  13  17
ATOM     17  C2  <0> d          30.637  71.731 -19.029  0.00  0.00     0.132 C 
ATOM     18  C1  <0> d          30.044  73.142 -19.023  0.00  0.00     0.027 C 
ENDBRANCH  13  17
ENDBRANCH   1   9
BRANCH   3  19
ATOM     19  O3  <0> d          30.163  68.410 -25.403  0.00  0.00    -0.349 OA
BRANCH  19  20
ATOM     20  C12 <0> d          30.683  67.185 -24.883  0.00  0.00     0.171 C 
ATOM     21  C13 <0> d          32.055  67.439 -24.257  0.00  0.00     0.034 C 
ENDBRANCH  19  20
ENDBRANCH   3  19
BRANCH   4  22
ATOM     22  O2  <0> d          28.659  70.383 -26.592  0.00  0.00    -0.357 OA
ATOM     23  H8  <0> d          27.997  70.971 -26.981  0.00  0.00     0.218 HD
ENDBRANCH   4  22
TORSDOF 5
ENDMDL
MODEL 8
REMARK VINA RESULT:      -5.6     20.698     22.501
REMARK  5 active torsions:
REMARK  status: ('A' for Active; 'I' for Inactive)
REMARK    1  A    between atoms: C2_2  and  N1_3 
REMARK    2  A    between atoms: C5_7  and  C6_8 
REMARK    3  A    between atoms: C8_10  and  O3_17 
REMARK    4  A    between atoms: C9_11  and  O2_16 
REMARK    5  A    between atoms: O3_17  and  C12_18 
ROOT
ATOM      1  C6  <0> d          28.882  56.315  -7.101  0.00  0.00    -0.013 A 
ATOM      2  C7  <0> d          27.934  55.421  -6.586  0.00  0.00     0.052 A 
ATOM      3  C8  <0> d          28.349  54.329  -5.850  0.00  0.00     0.104 A 
ATOM      4  C9  <0> d          29.708  54.121  -5.614  0.00  0.00     0.118 A 
ATOM      5  C10 <0> d          30.650  55.002  -6.129  0.00  0.00     0.065 A 
ATOM      6  C11 <0> d          30.245  56.096  -6.865  0.00  0.00     0.041 A 
ATOM      7 Br1  <0> d          31.529  57.299  -7.558  0.00  0.00    -0.049 Br
ATOM      8 Br2  <0> d          32.491  54.708  -5.811  0.00  0.00    -0.047 Br
ENDROOT
BRANCH   1   9
ATOM      9  C5  <0> d          28.447  57.478  -7.884  0.00  0.00     0.037 C 
ATOM     10  C4  <0> d          28.254  58.675  -7.271  0.00  0.00     0.079 A 
ATOM     11  C3  <0> d          28.264  59.008  -5.833  0.00  0.00     0.268 A 
ATOM     12  S1  <0> d          27.909  60.277  -7.984  0.00  0.00    -0.023 SA
ATOM     13  N1  <0> d          28.046  60.274  -5.517  0.00  0.00    -0.275 N 
ATOM     14  O1  <0> d          28.465  58.162  -4.982  0.00  0.00    -0.266 OA
ATOM     15  C14 <0> d          27.816  61.207  -6.462  0.00  0.00     0.293 A 
ATOM     16  O4  <0> d          27.599  62.395  -6.315  0.00  0.00    -0.259 OA
BRANCH  13  17
ATOM     17  C2  <0> d          28.049  60.669  -4.106  0.00  0.00     0.132 C 
ATOM     18  C1  <0> d          26.639  60.516  -3.531  0.00  0.00     0.027 C 
ENDBRANCH  13  17
ENDBRANCH   1   9
BRANCH   3  19
ATOM     19  O3  <0> d          27.432  53.459  -5.349  0.00  0.00    -0.349 OA
BRANCH  19  20
ATOM     20  C12 <0> d          26.713  53.873  -4.185  0.00  0.00     0.171 C 
ATOM     21  C13 <0> d          26.687  52.730  -3.169  0.00  0.00     0.034 C 
ENDBRANCH  19  20
ENDBRANCH   3  19
BRANCH   4  22
ATOM     22  O2  <0> d          30.112  53.049  -4.885  0.00  0.00    -0.357 OA
ATOM     23  H8  <0> d          29.746  53.021  -3.990  0.00  0.00     0.218 HD
ENDBRANCH   4  22
TORSDOF 5
ENDMDL
MODEL 9
REMARK VINA RESULT:      -5.5      6.352      8.508
REMARK  5 active torsions:
REMARK  status: ('A' for Active; 'I' for Inactive)
REMARK    1  A    between atoms: C2_2  and  N1_3 
REMARK    2  A    between atoms: C5_7  and  C6_8 
REMARK    3  A    between atoms: C8_10  and  O3_17 
REMARK    4  A    between atoms: C9_11  and  O2_16 
REMARK    5  A    between atoms: O3_17  and  C12_18 
ROOT
ATOM      1  C6  <0> d          25.042  70.794 -25.245  0.00  0.00    -0.013 A 
ATOM      2  C7  <0> d          26.271  70.219 -25.592  0.00  0.00     0.052 A 
ATOM      3  C8  <0> d          26.324  69.253 -26.577  0.00  0.00     0.104 A 
ATOM      4  C9  <0> d          25.157  68.853 -27.227  0.00  0.00     0.118 A 
ATOM      5  C10 <0> d          23.935  69.416 -26.881  0.00  0.00     0.065 A 
ATOM      6  C11 <0> d          23.873  70.383 -25.899  0.00  0.00     0.041 A 
ATOM      7 Br1  <0> d          22.210  71.154 -25.434  0.00  0.00    -0.049 Br
ATOM      8 Br2  <0> d          22.357  68.863 -27.763  0.00  0.00    -0.047 Br
ENDROOT
BRANCH   1   9
ATOM      9  C5  <0> d          24.979  71.823 -24.201  0.00  0.00     0.037 C 
ATOM     10  C4  <0> d          24.937  71.460 -22.892  0.00  0.00     0.079 A 
ATOM     11  C3  <0> d          24.790  70.120 -22.292  0.00  0.00     0.268 A 
ATOM     12  S1  <0> d          25.039  72.476 -21.425  0.00  0.00    -0.023 SA
ATOM     13  N1  <0> d          24.786  70.060 -20.971  0.00  0.00    -0.275 N 
ATOM     14  O1  <0> d          24.681  69.120 -22.977  0.00  0.00    -0.266 OA
ATOM     15  C14 <0> d          24.900  71.170 -20.214  0.00  0.00     0.293 A 
ATOM     16  O4  <0> d          24.907  71.261 -19.002  0.00  0.00    -0.259 OA
BRANCH  13  17
ATOM     17  C2  <0> d          24.649  68.757 -20.315  0.00  0.00     0.132 C 
ATOM     18  C1  <0> d          26.037  68.181 -20.029  0.00  0.00     0.027 C 
ENDBRANCH  13  17
ENDBRANCH   1   9
BRANCH   3  19
ATOM     19  O3  <0> d          27.516  68.692 -26.916  0.00  0.00    -0.349 OA
BRANCH  19  20
ATOM     20  C12 <0> d          28.672  69.150 -26.210  0.00  0.00     0.171 C 
ATOM     21  C13 <0> d          29.432  67.949 -25.646  0.00  0.00     0.034 C 
ENDBRANCH  19  20
ENDBRANCH   3  19
BRANCH   4  22
ATOM     22  O2  <0> d          25.213  67.906 -28.199  0.00  0.00    -0.357 OA
ATOM     23  H8  <0> d          26.059  67.439 -28.245  0.00  0.00     0.218 HD
ENDBRANCH   4  22
TORSDOF 5
ENDMDL
MODEL 10
REMARK VINA RESULT:      -5.5     17.280     19.050
REMARK  5 active torsions:
REMARK  status: ('A' for Active; 'I' for Inactive)
REMARK    1  A    between atoms: C2_2  and  N1_3 
REMARK    2  A    between atoms: C5_7  and  C6_8 
REMARK    3  A    between atoms: C8_10  and  O3_17 
REMARK    4  A    between atoms: C9_11  and  O2_16 
REMARK    5  A    between atoms: O3_17  and  C12_18 
ROOT
ATOM      1  C6  <0> d          31.659  89.900 -20.083  0.00  0.00    -0.013 A 
ATOM      2  C7  <0> d          31.069  89.184 -21.132  0.00  0.00     0.052 A 
ATOM      3  C8  <0> d          31.776  88.964 -22.298  0.00  0.00     0.104 A 
ATOM      4  C9  <0> d          33.076  89.451 -22.428  0.00  0.00     0.118 A 
ATOM      5  C10 <0> d          33.662  90.168 -21.392  0.00  0.00     0.065 A 
ATOM      6  C11 <0> d          32.964  90.391 -20.224  0.00  0.00     0.041 A 
ATOM      7 Br1  <0> d          33.766  91.360 -18.813  0.00  0.00    -0.049 Br
ATOM      8 Br2  <0> d          35.423  90.830 -21.581  0.00  0.00    -0.047 Br
ENDROOT
BRANCH   1   9
ATOM      9  C5  <0> d          30.913  90.136 -18.841  0.00  0.00     0.037 C 
ATOM     10  C4  <0> d          30.996  89.243 -17.821  0.00  0.00     0.079 A 
ATOM     11  C3  <0> d          31.632  87.912 -17.784  0.00  0.00     0.268 A 
ATOM     12  S1  <0> d          30.357  89.355 -16.155  0.00  0.00    -0.023 SA
ATOM     13  N1  <0> d          31.562  87.253 -16.640  0.00  0.00    -0.275 N 
ATOM     14  O1  <0> d          32.195  87.445 -18.757  0.00  0.00    -0.266 OA
ATOM     15  C14 <0> d          30.932  87.770 -15.566  0.00  0.00     0.293 A 
ATOM     16  O4  <0> d          30.789  87.277 -14.464  0.00  0.00    -0.259 OA
BRANCH  13  17
ATOM     17  C2  <0> d          32.179  85.928 -16.539  0.00  0.00     0.132 C 
ATOM     18  C1  <0> d          33.611  86.071 -16.018  0.00  0.00     0.027 C 
ENDBRANCH  13  17
ENDBRANCH   1   9
BRANCH   3  19
ATOM     19  O3  <0> d          31.205  88.269 -23.318  0.00  0.00    -0.349 OA
BRANCH  19  20
ATOM     20  C12 <0> d          30.298  87.223 -22.963  0.00  0.00     0.171 C 
ATOM     21  C13 <0> d          28.940  87.483 -23.617  0.00  0.00     0.034 C 
ENDBRANCH  19  20
ENDBRANCH   3  19
BRANCH   4  22
ATOM     22  O2  <0> d          33.770  89.229 -23.574  0.00  0.00    -0.357 OA
ATOM     23  H8  <0> d          33.401  88.527 -24.129  0.00  0.00     0.218 HD
ENDBRANCH   4  22
TORSDOF 5
ENDMDL
