MODEL 1
REMARK VINA RESULT:      -5.4      0.000      0.000
REMARK  0 active torsions:
REMARK  status: ('A' for Active; 'I' for Inactive)
ROOT
ATOM      1  C1  <0> d          28.156  69.924 -24.893  0.00  0.00     0.065 A 
ATOM      2  C2  <0> d          28.990  69.811 -23.792  0.00  0.00     0.108 A 
ATOM      3  C3  <0> d          30.015  68.866 -23.793  0.00  0.00     0.092 A 
ATOM      4  C4  <0> d          30.198  68.043 -24.893  0.00  0.00     0.087 A 
ATOM      5  C5  <0> d          29.363  68.161 -25.989  0.00  0.00     0.080 A 
ATOM      6  C6  <0> d          28.344  69.100 -25.988  0.00  0.00     0.060 A 
ATOM      7 Cl1  <0> d          27.299  69.245 -27.367  0.00  0.00    -0.082 Cl
ATOM      8 Cl2  <0> d          29.590  67.132 -27.368  0.00  0.00    -0.081 Cl
ATOM      9 Cl3  <0> d          31.475  66.866 -24.896  0.00  0.00    -0.080 Cl
ATOM     10  N1  <0> d          30.672  68.989 -22.568  0.00  0.00    -0.323 N 
ATOM     11  H1  <0> d          31.432  68.465 -22.271  0.00  0.00     0.169 HD
ATOM     12  C7  <0> d          30.057  69.967 -21.875  0.00  0.00     0.220 A 
ATOM     13  S1  <0> d          30.497  70.494 -20.307  0.00  0.00    -0.033 SA
ATOM     14  O1  <0> d          29.042  70.461 -22.603  0.00  0.00    -0.282 OA
ENDROOT
TORSDOF 0
ENDMDL
MODEL 2
REMARK VINA RESULT:      -5.3      3.748      4.953
REMARK  0 active torsions:
REMARK  status: ('A' for Active; 'I' for Inactive)
ROOT
ATOM      1  C1  <0> d          30.470  67.799 -25.419  0.00  0.00     0.065 A 
ATOM      2  C2  <0> d          29.326  68.407 -25.912  0.00  0.00     0.108 A 
ATOM      3  C3  <0> d          28.673  69.373 -25.149  0.00  0.00     0.092 A 
ATOM      4  C4  <0> d          29.165  69.723 -23.901  0.00  0.00     0.087 A 
ATOM      5  C5  <0> d          30.307  69.112 -23.416  0.00  0.00     0.080 A 
ATOM      6  C6  <0> d          30.957  68.151 -24.174  0.00  0.00     0.060 A 
ATOM      7 Cl1  <0> d          32.391  67.389 -23.560  0.00  0.00    -0.082 Cl
ATOM      8 Cl2  <0> d          30.927  69.548 -21.855  0.00  0.00    -0.081 Cl
ATOM      9 Cl3  <0> d          28.351  70.926 -22.950  0.00  0.00    -0.080 Cl
ATOM     10  N1  <0> d          27.573  69.795 -25.897  0.00  0.00    -0.323 N 
ATOM     11  H1  <0> d          26.922  70.463 -25.633  0.00  0.00     0.169 HD
ATOM     12  C7  <0> d          27.581  69.104 -27.054  0.00  0.00     0.220 A 
ATOM     13  S1  <0> d          26.430  69.266 -28.311  0.00  0.00    -0.033 SA
ATOM     14  O1  <0> d          28.629  68.264 -27.066  0.00  0.00    -0.282 OA
ENDROOT
TORSDOF 0
ENDMDL
MODEL 3
REMARK VINA RESULT:      -5.2      3.146      4.162
REMARK  0 active torsions:
REMARK  status: ('A' for Active; 'I' for Inactive)
ROOT
ATOM      1  C1  <0> d          29.025  70.052 -23.549  0.00  0.00     0.065 A 
ATOM      2  C2  <0> d          28.127  69.923 -24.598  0.00  0.00     0.108 A 
ATOM      3  C3  <0> d          28.368  68.990 -25.605  0.00  0.00     0.092 A 
ATOM      4  C4  <0> d          29.503  68.194 -25.557  0.00  0.00     0.087 A 
ATOM      5  C5  <0> d          30.394  68.328 -24.508  0.00  0.00     0.080 A 
ATOM      6  C6  <0> d          30.154  69.256 -23.506  0.00  0.00     0.060 A 
ATOM      7 Cl1  <0> d          31.276  69.417 -22.192  0.00  0.00    -0.082 Cl
ATOM      8 Cl2  <0> d          31.815  67.333 -24.445  0.00  0.00    -0.081 Cl
ATOM      9 Cl3  <0> d          29.804  67.032 -26.812  0.00  0.00    -0.080 Cl
ATOM     10  N1  <0> d          27.308  69.093 -26.506  0.00  0.00    -0.323 N 
ATOM     11  H1  <0> d          27.190  68.572 -27.315  0.00  0.00     0.169 HD
ATOM     12  C7  <0> d          26.476  70.048 -26.045  0.00  0.00     0.220 A 
ATOM     13  S1  <0> d          25.024  70.544 -26.804  0.00  0.00    -0.033 SA
ATOM     14  O1  <0> d          26.967  70.555 -24.902  0.00  0.00    -0.282 OA
ENDROOT
TORSDOF 0
ENDMDL
MODEL 4
REMARK VINA RESULT:      -5.2      1.300      2.638
REMARK  0 active torsions:
REMARK  status: ('A' for Active; 'I' for Inactive)
ROOT
ATOM      1  C1  <0> d          30.178  67.832 -25.097  0.00  0.00     0.065 A 
ATOM      2  C2  <0> d          30.072  68.639 -23.975  0.00  0.00     0.108 A 
ATOM      3  C3  <0> d          29.129  69.665 -23.946  0.00  0.00     0.092 A 
ATOM      4  C4  <0> d          28.299  69.876 -25.036  0.00  0.00     0.087 A 
ATOM      5  C5  <0> d          28.410  69.067 -26.152  0.00  0.00     0.080 A 
ATOM      6  C6  <0> d          29.348  68.048 -26.182  0.00  0.00     0.060 A 
ATOM      7 Cl1  <0> d          29.480  67.035 -27.585  0.00  0.00    -0.082 Cl
ATOM      8 Cl2  <0> d          27.372  69.328 -27.519  0.00  0.00    -0.081 Cl
ATOM      9 Cl3  <0> d          27.123  71.153 -25.000  0.00  0.00    -0.080 Cl
ATOM     10  N1  <0> d          29.260  70.292 -22.706  0.00  0.00    -0.323 N 
ATOM     11  H1  <0> d          28.739  71.045 -22.387  0.00  0.00     0.169 HD
ATOM     12  C7  <0> d          30.242  69.660 -22.034  0.00  0.00     0.220 A 
ATOM     13  S1  <0> d          30.779  70.061 -20.459  0.00  0.00    -0.033 SA
ATOM     14  O1  <0> d          30.738  68.669 -22.794  0.00  0.00    -0.282 OA
ENDROOT
TORSDOF 0
ENDMDL
MODEL 5
REMARK VINA RESULT:      -5.0     20.752     22.104
REMARK  0 active torsions:
REMARK  status: ('A' for Active; 'I' for Inactive)
ROOT
ATOM      1  C1  <0> d          28.914  55.833  -7.020  0.00  0.00     0.065 A 
ATOM      2  C2  <0> d          28.201  56.937  -7.460  0.00  0.00     0.108 A 
ATOM      3  C3  <0> d          27.201  57.481  -6.654  0.00  0.00     0.092 A 
ATOM      4  C4  <0> d          26.923  56.919  -5.418  0.00  0.00     0.087 A 
ATOM      5  C5  <0> d          27.639  55.817  -4.986  0.00  0.00     0.080 A 
ATOM      6  C6  <0> d          28.632  55.276  -5.786  0.00  0.00     0.060 A 
ATOM      7 Cl1  <0> d          29.528  53.895  -5.236  0.00  0.00    -0.082 Cl
ATOM      8 Cl2  <0> d          27.293  55.112  -3.438  0.00  0.00    -0.081 Cl
ATOM      9 Cl3  <0> d          25.678  57.596  -4.414  0.00  0.00    -0.080 Cl
ATOM     10  N1  <0> d          26.671  58.565  -7.355  0.00  0.00    -0.323 N 
ATOM     11  H1  <0> d          25.956  59.148  -7.054  0.00  0.00     0.169 HD
ATOM     12  C7  <0> d          27.332  58.653  -8.525  0.00  0.00     0.220 A 
ATOM     13  S1  <0> d          27.045  59.828  -9.738  0.00  0.00    -0.033 SA
ATOM     14  O1  <0> d          28.249  57.674  -8.596  0.00  0.00    -0.282 OA
ENDROOT
TORSDOF 0
ENDMDL
MODEL 6
REMARK VINA RESULT:      -5.0      3.286      4.194
REMARK  0 active torsions:
REMARK  status: ('A' for Active; 'I' for Inactive)
ROOT
ATOM      1  C1  <0> d          26.954  70.395 -24.997  0.00  0.00     0.065 A 
ATOM      2  C2  <0> d          27.912  69.440 -25.302  0.00  0.00     0.108 A 
ATOM      3  C3  <0> d          28.047  68.991 -26.615  0.00  0.00     0.092 A 
ATOM      4  C4  <0> d          27.226  69.498 -27.610  0.00  0.00     0.087 A 
ATOM      5  C5  <0> d          26.273  70.450 -27.298  0.00  0.00     0.080 A 
ATOM      6  C6  <0> d          26.138  70.897 -25.993  0.00  0.00     0.060 A 
ATOM      7 Cl1  <0> d          24.940  72.093 -25.609  0.00  0.00    -0.082 Cl
ATOM      8 Cl2  <0> d          25.244  71.087 -28.542  0.00  0.00    -0.081 Cl
ATOM      9 Cl3  <0> d          27.394  68.939 -29.245  0.00  0.00    -0.080 Cl
ATOM     10  N1  <0> d          29.076  68.048 -26.609  0.00  0.00    -0.323 N 
ATOM     11  H1  <0> d          29.405  67.555 -27.377  0.00  0.00     0.169 HD
ATOM     12  C7  <0> d          29.526  67.947 -25.344  0.00  0.00     0.220 A 
ATOM     13  S1  <0> d          30.791  66.917 -24.823  0.00  0.00    -0.033 SA
ATOM     14  O1  <0> d          28.827  68.778 -24.553  0.00  0.00    -0.282 OA
ENDROOT
TORSDOF 0
ENDMDL
MODEL 7
REMARK VINA RESULT:      -4.9      1.583      2.228
REMARK  0 active torsions:
REMARK  status: ('A' for Active; 'I' for Inactive)
ROOT
ATOM      1  C1  <0> d          27.073  70.738 -25.887  0.00  0.00     0.065 A 
ATOM      2  C2  <0> d          28.077  70.243 -25.068  0.00  0.00     0.108 A 
ATOM      3  C3  <0> d          28.847  69.162 -25.495  0.00  0.00     0.092 A 
ATOM      4  C4  <0> d          28.610  68.585 -26.733  0.00  0.00     0.087 A 
ATOM      5  C5  <0> d          27.607  69.085 -27.544  0.00  0.00     0.080 A 
ATOM      6  C6  <0> d          26.841  70.159 -27.120  0.00  0.00     0.060 A 
ATOM      7 Cl1  <0> d          25.584  70.782 -28.144  0.00  0.00    -0.082 Cl
ATOM      8 Cl2  <0> d          27.307  68.366 -29.095  0.00  0.00    -0.081 Cl
ATOM      9 Cl3  <0> d          29.569  67.239 -27.264  0.00  0.00    -0.080 Cl
ATOM     10  N1  <0> d          29.759  68.896 -24.473  0.00  0.00    -0.323 N 
ATOM     11  H1  <0> d          30.433  68.198 -24.474  0.00  0.00     0.169 HD
ATOM     12  C7  <0> d          29.534  69.785 -23.486  0.00  0.00     0.220 A 
ATOM     13  S1  <0> d          30.400  69.867 -22.012  0.00  0.00    -0.033 SA
ATOM     14  O1  <0> d          28.520  70.593 -23.836  0.00  0.00    -0.282 OA
ENDROOT
TORSDOF 0
ENDMDL
MODEL 8
REMARK VINA RESULT:      -4.9      2.491      3.478
REMARK  0 active torsions:
REMARK  status: ('A' for Active; 'I' for Inactive)
ROOT
ATOM      1  C1  <0> d          27.315  69.269 -22.710  0.00  0.00     0.065 A 
ATOM      2  C2  <0> d          28.563  69.082 -23.283  0.00  0.00     0.108 A 
ATOM      3  C3  <0> d          28.695  69.084 -24.671  0.00  0.00     0.092 A 
ATOM      4  C4  <0> d          27.580  69.272 -25.474  0.00  0.00     0.087 A 
ATOM      5  C5  <0> d          26.338  69.458 -24.895  0.00  0.00     0.080 A 
ATOM      6  C6  <0> d          26.207  69.456 -23.515  0.00  0.00     0.060 A 
ATOM      7 Cl1  <0> d          24.645  69.692 -22.795  0.00  0.00    -0.082 Cl
ATOM      8 Cl2  <0> d          24.941  69.695 -25.897  0.00  0.00    -0.081 Cl
ATOM      9 Cl3  <0> d          27.744  69.275 -27.202  0.00  0.00    -0.080 Cl
ATOM     10  N1  <0> d          30.047  68.875 -24.943  0.00  0.00    -0.323 N 
ATOM     11  H1  <0> d          30.454  68.825 -25.822  0.00  0.00     0.169 HD
ATOM     12  C7  <0> d          30.685  68.755 -23.762  0.00  0.00     0.220 A 
ATOM     13  S1  <0> d          32.365  68.488 -23.567  0.00  0.00    -0.033 SA
ATOM     14  O1  <0> d          29.796  68.873 -22.761  0.00  0.00    -0.282 OA
ENDROOT
TORSDOF 0
ENDMDL
MODEL 9
REMARK VINA RESULT:      -4.8     15.876     16.099
REMARK  0 active torsions:
REMARK  status: ('A' for Active; 'I' for Inactive)
ROOT
ATOM      1  C1  <0> d          22.018  56.457 -30.577  0.00  0.00     0.065 A 
ATOM      2  C2  <0> d          22.526  55.866 -29.430  0.00  0.00     0.108 A 
ATOM      3  C3  <0> d          23.620  55.007 -29.521  0.00  0.00     0.092 A 
ATOM      4  C4  <0> d          24.197  54.746 -30.754  0.00  0.00     0.087 A 
ATOM      5  C5  <0> d          23.685  55.339 -31.894  0.00  0.00     0.080 A 
ATOM      6  C6  <0> d          22.598  56.193 -31.804  0.00  0.00     0.060 A 
ATOM      7 Cl1  <0> d          21.961  56.936 -33.238  0.00  0.00    -0.082 Cl
ATOM      8 Cl2  <0> d          24.406  55.015 -33.439  0.00  0.00    -0.081 Cl
ATOM      9 Cl3  <0> d          25.560  53.676 -30.867  0.00  0.00    -0.080 Cl
ATOM     10  N1  <0> d          23.896  54.576 -28.223  0.00  0.00    -0.323 N 
ATOM     11  H1  <0> d          24.605  53.968 -27.960  0.00  0.00     0.169 HD
ATOM     12  C7  <0> d          23.000  55.158 -27.403  0.00  0.00     0.220 A 
ATOM     13  S1  <0> d          22.926  54.942 -25.706  0.00  0.00    -0.033 SA
ATOM     14  O1  <0> d          22.170  55.930 -28.124  0.00  0.00    -0.282 OA
ENDROOT
TORSDOF 0
ENDMDL
MODEL 10
REMARK VINA RESULT:      -4.7      5.877      6.916
REMARK  0 active torsions:
REMARK  status: ('A' for Active; 'I' for Inactive)
ROOT
ATOM      1  C1  <0> d          24.691  70.371 -25.965  0.00  0.00     0.065 A 
ATOM      2  C2  <0> d          24.285  70.729 -27.241  0.00  0.00     0.108 A 
ATOM      3  C3  <0> d          25.143  70.530 -28.321  0.00  0.00     0.092 A 
ATOM      4  C4  <0> d          26.398  69.976 -28.119  0.00  0.00     0.087 A 
ATOM      5  C5  <0> d          26.796  69.622 -26.843  0.00  0.00     0.080 A 
ATOM      6  C6  <0> d          25.943  69.819 -25.768  0.00  0.00     0.060 A 
ATOM      7 Cl1  <0> d          26.449  69.371 -24.169  0.00  0.00    -0.082 Cl
ATOM      8 Cl2  <0> d          28.366  68.927 -26.585  0.00  0.00    -0.081 Cl
ATOM      9 Cl3  <0> d          27.467  69.728 -29.464  0.00  0.00    -0.080 Cl
ATOM     10  N1  <0> d          24.467  70.981 -29.456  0.00  0.00    -0.323 N 
ATOM     11  H1  <0> d          24.805  70.973 -30.365  0.00  0.00     0.169 HD
ATOM     12  C7  <0> d          23.260  71.426 -29.057  0.00  0.00     0.220 A 
ATOM     13  S1  <0> d          22.058  72.080 -30.087  0.00  0.00    -0.033 SA
ATOM     14  O1  <0> d          23.147  71.283 -27.726  0.00  0.00    -0.282 OA
ENDROOT
TORSDOF 0
ENDMDL
