MODEL 1
REMARK VINA RESULT:      -7.3      0.000      0.000
REMARK  3 active torsions:
REMARK  status: ('A' for Active; 'I' for Inactive)
REMARK    1  A    between atoms: C5_5  and  C7_7 
REMARK    2  A    between atoms: C7_7  and  N1_8 
REMARK    3  A    between atoms: C10_12  and  C11_13 
ROOT
ATOM      1  N1  <0> d          28.712  69.378 -26.006  0.00  0.00    -0.260 N 
ATOM      2  C8  <0> d          29.106  69.699 -24.757  0.00  0.00     0.278 A 
ATOM      3  O1  <0> d          28.795  70.691 -24.125  0.00  0.00    -0.265 OA
ATOM      4  C9  <0> d          29.988  68.607 -24.314  0.00  0.00     0.106 A 
ATOM      5  C10 <0> d          30.623  68.494 -23.121  0.00  0.00     0.046 C 
ATOM      6  N2  <0> d          30.036  67.713 -25.390  0.00  0.00    -0.304 N 
ATOM      7  C17 <0> d          29.259  68.209 -26.370  0.00  0.00     0.330 A 
ATOM      8  O2  <0> d          29.081  67.671 -27.446  0.00  0.00    -0.246 OA
ATOM      9  H12 <0> d          30.537  66.883 -25.423  0.00  0.00     0.171 HD
ENDROOT
BRANCH   1  10
ATOM     10  C7  <0> d          27.819  70.186 -26.841  0.00  0.00     0.178 C 
BRANCH  10  11
ATOM     11  C5  <0> d          26.411  69.662 -26.724  0.00  0.00    -0.001 A 
ATOM     12  C4  <0> d          25.830  68.996 -27.790  0.00  0.00     0.124 A 
ATOM     13  C3  <0> d          24.536  68.514 -27.681  0.00  0.00     0.043 A 
ATOM     14  F1  <0> d          26.524  68.815 -28.934  0.00  0.00    -0.205 F 
ATOM     15  C2  <0> d          23.827  68.698 -26.509  0.00  0.00     0.003 A 
ATOM     16  C1  <0> d          24.409  69.365 -25.446  0.00  0.00     0.001 A 
ATOM     17  C6  <0> d          25.701  69.841 -25.551  0.00  0.00     0.012 A 
ENDBRANCH  10  11
ENDBRANCH   1  10
BRANCH   5  18
ATOM     18  C11 <0> d          30.601  69.613 -22.168  0.00  0.00    -0.034 A 
ATOM     19  C16 <0> d          29.599  69.688 -21.195  0.00  0.00     0.012 A 
ATOM     20  C15 <0> d          29.585  70.741 -20.305  0.00  0.00     0.019 A 
ATOM     21  C14 <0> d          30.559  71.723 -20.373  0.00  0.00     0.006 A 
ATOM     22  C13 <0> d          31.554  71.656 -21.335  0.00  0.00     0.019 A 
ATOM     23  I1  <0> d          30.532  73.314 -19.011  0.00  0.00    -0.045 I 
ATOM     24  C12 <0> d          31.582  70.610 -22.231  0.00  0.00     0.012 A 
ENDBRANCH   5  18
TORSDOF 3
ENDMDL
MODEL 2
REMARK VINA RESULT:      -7.3      3.236      6.821
REMARK  3 active torsions:
REMARK  status: ('A' for Active; 'I' for Inactive)
REMARK    1  A    between atoms: C5_5  and  C7_7 
REMARK    2  A    between atoms: C7_7  and  N1_8 
REMARK    3  A    between atoms: C10_12  and  C11_13 
ROOT
ATOM      1  N1  <0> d          30.299  69.074 -23.225  0.00  0.00    -0.260 N 
ATOM      2  C8  <0> d          29.361  69.588 -24.047  0.00  0.00     0.278 A 
ATOM      3  O1  <0> d          28.640  70.543 -23.826  0.00  0.00    -0.265 OA
ATOM      4  C9  <0> d          29.386  68.761 -25.264  0.00  0.00     0.106 A 
ATOM      5  C10 <0> d          28.615  68.900 -26.371  0.00  0.00     0.046 C 
ATOM      6  N2  <0> d          30.373  67.795 -25.032  0.00  0.00    -0.304 N 
ATOM      7  C17 <0> d          30.891  68.023 -23.811  0.00  0.00     0.330 A 
ATOM      8  O2  <0> d          31.777  67.360 -23.305  0.00  0.00    -0.246 OA
ATOM      9  H12 <0> d          30.638  67.089 -25.642  0.00  0.00     0.171 HD
ENDROOT
BRANCH   1  10
ATOM     10  C7  <0> d          30.622  69.586 -21.891  0.00  0.00     0.178 C 
BRANCH  10  11
ATOM     11  C5  <0> d          31.642  70.689 -22.010  0.00  0.00    -0.001 A 
ATOM     12  C4  <0> d          31.264  72.005 -21.810  0.00  0.00     0.124 A 
ATOM     13  C3  <0> d          32.203  73.018 -21.919  0.00  0.00     0.043 A 
ATOM     14  F1  <0> d          29.981  72.304 -21.509  0.00  0.00    -0.205 F 
ATOM     15  C2  <0> d          33.516  72.712 -22.227  0.00  0.00     0.003 A 
ATOM     16  C1  <0> d          33.891  71.396 -22.426  0.00  0.00     0.001 A 
ATOM     17  C6  <0> d          32.956  70.385 -22.312  0.00  0.00     0.012 A 
ENDBRANCH  10  11
ENDBRANCH   1  10
BRANCH   5  18
ATOM     18  C11 <0> d          27.505  69.863 -26.376  0.00  0.00    -0.034 A 
ATOM     19  C16 <0> d          26.266  69.511 -25.831  0.00  0.00     0.012 A 
ATOM     20  C15 <0> d          25.230  70.421 -25.841  0.00  0.00     0.019 A 
ATOM     21  C14 <0> d          25.412  71.679 -26.388  0.00  0.00     0.006 A 
ATOM     22  C13 <0> d          26.637  72.035 -26.930  0.00  0.00     0.019 A 
ATOM     23  I1  <0> d          23.833  73.055 -26.390  0.00  0.00    -0.045 I 
ATOM     24  C12 <0> d          27.683  71.138 -26.928  0.00  0.00     0.012 A 
ENDBRANCH   5  18
TORSDOF 3
ENDMDL
MODEL 3
REMARK VINA RESULT:      -7.1      3.059      6.643
REMARK  3 active torsions:
REMARK  status: ('A' for Active; 'I' for Inactive)
REMARK    1  A    between atoms: C5_5  and  C7_7 
REMARK    2  A    between atoms: C7_7  and  N1_8 
REMARK    3  A    between atoms: C10_12  and  C11_13 
ROOT
ATOM      1  N1  <0> d          29.698  68.022 -24.614  0.00  0.00    -0.260 N 
ATOM      2  C8  <0> d          28.822  68.878 -25.179  0.00  0.00     0.278 A 
ATOM      3  O1  <0> d          28.233  69.789 -24.629  0.00  0.00    -0.265 OA
ATOM      4  C9  <0> d          28.723  68.486 -26.594  0.00  0.00     0.106 A 
ATOM      5  C10 <0> d          27.960  69.061 -27.556  0.00  0.00     0.046 C 
ATOM      6  N2  <0> d          29.581  67.389 -26.734  0.00  0.00    -0.304 N 
ATOM      7  C17 <0> d          30.142  67.152 -25.534  0.00  0.00     0.330 A 
ATOM      8  O2  <0> d          30.943  66.264 -25.312  0.00  0.00    -0.246 OA
ATOM      9  H12 <0> d          29.744  66.889 -27.549  0.00  0.00     0.171 HD
ENDROOT
BRANCH   1  10
ATOM     10  C7  <0> d          30.104  68.040 -23.206  0.00  0.00     0.178 C 
BRANCH  10  11
ATOM     11  C5  <0> d          31.243  69.009 -23.024  0.00  0.00    -0.001 A 
ATOM     12  C4  <0> d          31.060  70.159 -22.275  0.00  0.00     0.124 A 
ATOM     13  C3  <0> d          32.108  71.049 -22.108  0.00  0.00     0.043 A 
ATOM     14  F1  <0> d          29.861  70.413 -21.707  0.00  0.00    -0.205 F 
ATOM     15  C2  <0> d          33.335  70.788 -22.689  0.00  0.00     0.003 A 
ATOM     16  C1  <0> d          33.516  69.639 -23.437  0.00  0.00     0.001 A 
ATOM     17  C6  <0> d          32.473  68.748 -23.600  0.00  0.00     0.012 A 
ENDBRANCH  10  11
ENDBRANCH   1  10
BRANCH   5  18
ATOM     18  C11 <0> d          26.983  70.099 -27.197  0.00  0.00    -0.034 A 
ATOM     19  C16 <0> d          27.321  71.451 -27.307  0.00  0.00     0.012 A 
ATOM     20  C15 <0> d          26.399  72.419 -26.967  0.00  0.00     0.019 A 
ATOM     21  C14 <0> d          25.141  72.054 -26.516  0.00  0.00     0.006 A 
ATOM     22  C13 <0> d          24.799  70.717 -26.404  0.00  0.00     0.019 A 
ATOM     23  I1  <0> d          23.746  73.532 -26.010  0.00  0.00    -0.045 I 
ATOM     24  C12 <0> d          25.709  69.738 -26.740  0.00  0.00     0.012 A 
ENDBRANCH   5  18
TORSDOF 3
ENDMDL
MODEL 4
REMARK VINA RESULT:      -7.0      3.312      6.638
REMARK  3 active torsions:
REMARK  status: ('A' for Active; 'I' for Inactive)
REMARK    1  A    between atoms: C5_5  and  C7_7 
REMARK    2  A    between atoms: C7_7  and  N1_8 
REMARK    3  A    between atoms: C10_12  and  C11_13 
ROOT
ATOM      1  N1  <0> d          30.776  68.924 -23.180  0.00  0.00    -0.260 N 
ATOM      2  C8  <0> d          29.667  69.458 -23.732  0.00  0.00     0.278 A 
ATOM      3  O1  <0> d          28.937  70.297 -23.238  0.00  0.00    -0.265 OA
ATOM      4  C9  <0> d          29.519  68.821 -25.050  0.00  0.00     0.106 A 
ATOM      5  C10 <0> d          28.544  69.042 -25.967  0.00  0.00     0.046 C 
ATOM      6  N2  <0> d          30.596  67.932 -25.152  0.00  0.00    -0.304 N 
ATOM      7  C17 <0> d          31.318  68.031 -24.021  0.00  0.00     0.330 A 
ATOM      8  O2  <0> d          32.327  67.391 -23.791  0.00  0.00    -0.246 OA
ATOM      9  H12 <0> d          30.788  67.350 -25.904  0.00  0.00     0.171 HD
ENDROOT
BRANCH   1  10
ATOM     10  C7  <0> d          31.309  69.269 -21.860  0.00  0.00     0.178 C 
BRANCH  10  11
ATOM     11  C5  <0> d          31.957  70.628 -21.918  0.00  0.00    -0.001 A 
ATOM     12  C4  <0> d          33.228  70.766 -22.448  0.00  0.00     0.124 A 
ATOM     13  C3  <0> d          33.822  72.016 -22.502  0.00  0.00     0.043 A 
ATOM     14  F1  <0> d          33.890  69.684 -22.912  0.00  0.00    -0.205 F 
ATOM     15  C2  <0> d          33.144  73.124 -22.028  0.00  0.00     0.003 A 
ATOM     16  C1  <0> d          31.874  72.983 -21.499  0.00  0.00     0.001 A 
ATOM     17  C6  <0> d          31.279  71.738 -21.450  0.00  0.00     0.012 A 
ENDBRANCH  10  11
ENDBRANCH   1  10
BRANCH   5  18
ATOM     18  C11 <0> d          27.390  69.884 -25.623  0.00  0.00    -0.034 A 
ATOM     19  C16 <0> d          26.316  69.346 -24.906  0.00  0.00     0.012 A 
ATOM     20  C15 <0> d          25.236  70.143 -24.588  0.00  0.00     0.019 A 
ATOM     21  C14 <0> d          25.212  71.471 -24.977  0.00  0.00     0.006 A 
ATOM     22  C13 <0> d          26.272  72.011 -25.688  0.00  0.00     0.019 A 
ATOM     23  I1  <0> d          23.570  72.673 -24.482  0.00  0.00    -0.045 I 
ATOM     24  C12 <0> d          27.359  71.228 -26.014  0.00  0.00     0.012 A 
ENDBRANCH   5  18
TORSDOF 3
ENDMDL
MODEL 5
REMARK VINA RESULT:      -6.9      3.643      6.685
REMARK  3 active torsions:
REMARK  status: ('A' for Active; 'I' for Inactive)
REMARK    1  A    between atoms: C5_5  and  C7_7 
REMARK    2  A    between atoms: C7_7  and  N1_8 
REMARK    3  A    between atoms: C10_12  and  C11_13 
ROOT
ATOM      1  N1  <0> d          29.940  69.637 -23.183  0.00  0.00    -0.260 N 
ATOM      2  C8  <0> d          29.045  69.945 -24.144  0.00  0.00     0.278 A 
ATOM      3  O1  <0> d          28.247  70.863 -24.132  0.00  0.00    -0.265 OA
ATOM      4  C9  <0> d          29.229  68.946 -25.209  0.00  0.00     0.106 A 
ATOM      5  C10 <0> d          28.549  68.854 -26.379  0.00  0.00     0.046 C 
ATOM      6  N2  <0> d          30.253  68.106 -24.754  0.00  0.00    -0.304 N 
ATOM      7  C17 <0> d          30.648  68.558 -23.549  0.00  0.00     0.330 A 
ATOM      8  O2  <0> d          31.528  68.051 -22.879  0.00  0.00    -0.246 OA
ATOM      9  H12 <0> d          30.615  67.338 -25.223  0.00  0.00     0.171 HD
ENDROOT
BRANCH   1  10
ATOM     10  C7  <0> d          30.113  70.371 -21.927  0.00  0.00     0.178 C 
BRANCH  10  11
ATOM     11  C5  <0> d          29.333  69.686 -20.834  0.00  0.00    -0.001 A 
ATOM     12  C4  <0> d          29.915  69.477 -19.596  0.00  0.00     0.124 A 
ATOM     13  C3  <0> d          29.198  68.849 -18.592  0.00  0.00     0.043 A 
ATOM     14  F1  <0> d          31.182  69.887 -19.365  0.00  0.00    -0.205 F 
ATOM     15  C2  <0> d          27.901  68.431 -18.827  0.00  0.00     0.003 A 
ATOM     16  C1  <0> d          27.321  68.640 -20.066  0.00  0.00     0.001 A 
ATOM     17  C6  <0> d          28.035  69.272 -21.066  0.00  0.00     0.012 A 
ENDBRANCH  10  11
ENDBRANCH   1  10
BRANCH   5  18
ATOM     18  C11 <0> d          27.383  69.716 -26.620  0.00  0.00    -0.034 A 
ATOM     19  C16 <0> d          27.520  70.889 -27.370  0.00  0.00     0.012 A 
ATOM     20  C15 <0> d          26.422  71.693 -27.592  0.00  0.00     0.019 A 
ATOM     21  C14 <0> d          25.186  71.343 -27.074  0.00  0.00     0.006 A 
ATOM     22  C13 <0> d          25.043  70.183 -26.330  0.00  0.00     0.019 A 
ATOM     23  I1  <0> d          23.524  72.568 -27.424  0.00  0.00    -0.045 I 
ATOM     24  C12 <0> d          26.131  69.369 -26.099  0.00  0.00     0.012 A 
ENDBRANCH   5  18
TORSDOF 3
ENDMDL
MODEL 6
REMARK VINA RESULT:      -6.9      2.807      4.043
REMARK  3 active torsions:
REMARK  status: ('A' for Active; 'I' for Inactive)
REMARK    1  A    between atoms: C5_5  and  C7_7 
REMARK    2  A    between atoms: C7_7  and  N1_8 
REMARK    3  A    between atoms: C10_12  and  C11_13 
ROOT
ATOM      1  N1  <0> d          26.412  69.931 -24.898  0.00  0.00    -0.260 N 
ATOM      2  C8  <0> d          26.608  69.962 -23.564  0.00  0.00     0.278 A 
ATOM      3  O1  <0> d          27.594  70.373 -22.980  0.00  0.00    -0.265 OA
ATOM      4  C9  <0> d          25.390  69.400 -22.958  0.00  0.00     0.106 A 
ATOM      5  C10 <0> d          25.130  69.230 -21.638  0.00  0.00     0.046 C 
ATOM      6  N2  <0> d          24.560  69.072 -24.037  0.00  0.00    -0.304 N 
ATOM      7  C17 <0> d          25.206  69.410 -25.168  0.00  0.00     0.330 A 
ATOM      8  O2  <0> d          24.757  69.258 -26.288  0.00  0.00    -0.246 OA
ATOM      9  H12 <0> d          23.677  68.675 -23.980  0.00  0.00     0.171 HD
ENDROOT
BRANCH   1  10
ATOM     10  C7  <0> d          27.372  70.397 -25.902  0.00  0.00     0.178 C 
BRANCH  10  11
ATOM     11  C5  <0> d          28.122  69.217 -26.465  0.00  0.00    -0.001 A 
ATOM     12  C4  <0> d          27.879  68.799 -27.762  0.00  0.00     0.124 A 
ATOM     13  C3  <0> d          28.569  67.715 -28.279  0.00  0.00     0.043 A 
ATOM     14  F1  <0> d          26.972  69.448 -28.524  0.00  0.00    -0.205 F 
ATOM     15  C2  <0> d          29.499  67.053 -27.499  0.00  0.00     0.003 A 
ATOM     16  C1  <0> d          29.739  67.472 -26.203  0.00  0.00     0.001 A 
ATOM     17  C6  <0> d          29.055  68.556 -25.689  0.00  0.00     0.012 A 
ENDBRANCH  10  11
ENDBRANCH   1  10
BRANCH   5  18
ATOM     18  C11 <0> d          26.186  69.468 -20.644  0.00  0.00    -0.034 A 
ATOM     19  C16 <0> d          27.074  68.442 -20.302  0.00  0.00     0.012 A 
ATOM     20  C15 <0> d          28.062  68.674 -19.368  0.00  0.00     0.019 A 
ATOM     21  C14 <0> d          28.177  69.917 -18.769  0.00  0.00     0.006 A 
ATOM     22  C13 <0> d          27.301  70.937 -19.103  0.00  0.00     0.019 A 
ATOM     23  I1  <0> d          29.686  70.259 -17.358  0.00  0.00    -0.045 I 
ATOM     24  C12 <0> d          26.308  70.722 -20.035  0.00  0.00     0.012 A 
ENDBRANCH   5  18
TORSDOF 3
ENDMDL
MODEL 7
REMARK VINA RESULT:      -6.8      1.493      2.138
REMARK  3 active torsions:
REMARK  status: ('A' for Active; 'I' for Inactive)
REMARK    1  A    between atoms: C5_5  and  C7_7 
REMARK    2  A    between atoms: C7_7  and  N1_8 
REMARK    3  A    between atoms: C10_12  and  C11_13 
ROOT
ATOM      1  N1  <0> d          28.345  69.080 -24.668  0.00  0.00    -0.260 N 
ATOM      2  C8  <0> d          28.982  69.518 -23.563  0.00  0.00     0.278 A 
ATOM      3  O1  <0> d          28.493  70.126 -22.630  0.00  0.00    -0.265 OA
ATOM      4  C9  <0> d          30.389  69.112 -23.715  0.00  0.00     0.106 A 
ATOM      5  C10 <0> d          31.408  69.335 -22.849  0.00  0.00     0.046 C 
ATOM      6  N2  <0> d          30.450  68.451 -24.948  0.00  0.00    -0.304 N 
ATOM      7  C17 <0> d          29.212  68.452 -25.476  0.00  0.00     0.330 A 
ATOM      8  O2  <0> d          28.920  67.953 -26.546  0.00  0.00    -0.246 OA
ATOM      9  H12 <0> d          31.242  68.060 -25.350  0.00  0.00     0.171 HD
ENDROOT
BRANCH   1  10
ATOM     10  C7  <0> d          26.918  69.264 -24.946  0.00  0.00     0.178 C 
BRANCH  10  11
ATOM     11  C5  <0> d          26.733  70.441 -25.868  0.00  0.00    -0.001 A 
ATOM     12  C4  <0> d          26.386  70.234 -27.192  0.00  0.00     0.124 A 
ATOM     13  C3  <0> d          26.215  71.317 -28.039  0.00  0.00     0.043 A 
ATOM     14  F1  <0> d          26.212  68.978 -27.659  0.00  0.00    -0.205 F 
ATOM     15  C2  <0> d          26.392  72.602 -27.562  0.00  0.00     0.003 A 
ATOM     16  C1  <0> d          26.739  72.806 -26.239  0.00  0.00     0.001 A 
ATOM     17  C6  <0> d          26.904  71.727 -25.391  0.00  0.00     0.012 A 
ENDBRANCH  10  11
ENDBRANCH   1  10
BRANCH   5  18
ATOM     18  C11 <0> d          31.203  70.199 -21.679  0.00  0.00    -0.034 A 
ATOM     19  C16 <0> d          31.403  71.580 -21.781  0.00  0.00     0.012 A 
ATOM     20  C15 <0> d          31.208  72.384 -20.678  0.00  0.00     0.019 A 
ATOM     21  C14 <0> d          30.816  71.829 -19.471  0.00  0.00     0.006 A 
ATOM     22  C13 <0> d          30.616  70.463 -19.363  0.00  0.00     0.019 A 
ATOM     23  I1  <0> d          30.516  73.062 -17.805  0.00  0.00    -0.045 I 
ATOM     24  C12 <0> d          30.806  69.645 -20.456  0.00  0.00     0.012 A 
ENDBRANCH   5  18
TORSDOF 3
ENDMDL
MODEL 8
REMARK VINA RESULT:      -6.8      1.285      1.881
REMARK  3 active torsions:
REMARK  status: ('A' for Active; 'I' for Inactive)
REMARK    1  A    between atoms: C5_5  and  C7_7 
REMARK    2  A    between atoms: C7_7  and  N1_8 
REMARK    3  A    between atoms: C10_12  and  C11_13 
ROOT
ATOM      1  N1  <0> d          28.253  69.265 -26.772  0.00  0.00    -0.260 N 
ATOM      2  C8  <0> d          28.692  69.498 -25.518  0.00  0.00     0.278 A 
ATOM      3  O1  <0> d          28.477  70.486 -24.841  0.00  0.00    -0.265 OA
ATOM      4  C9  <0> d          29.485  68.318 -25.137  0.00  0.00     0.106 A 
ATOM      5  C10 <0> d          30.127  68.102 -23.962  0.00  0.00     0.046 C 
ATOM      6  N2  <0> d          29.439  67.469 -26.249  0.00  0.00    -0.304 N 
ATOM      7  C17 <0> d          28.693  68.070 -27.193  0.00  0.00     0.330 A 
ATOM      8  O2  <0> d          28.452  67.594 -28.286  0.00  0.00    -0.246 OA
ATOM      9  H12 <0> d          29.867  66.602 -26.325  0.00  0.00     0.171 HD
ENDROOT
BRANCH   1  10
ATOM     10  C7  <0> d          27.419  70.180 -27.556  0.00  0.00     0.178 C 
BRANCH  10  11
ATOM     11  C5  <0> d          25.967  69.941 -27.230  0.00  0.00    -0.001 A 
ATOM     12  C4  <0> d          25.286  70.828 -26.415  0.00  0.00     0.124 A 
ATOM     13  C3  <0> d          23.952  70.608 -26.116  0.00  0.00     0.043 A 
ATOM     14  F1  <0> d          25.921  71.909 -25.911  0.00  0.00    -0.205 F 
ATOM     15  C2  <0> d          23.302  69.503 -26.633  0.00  0.00     0.003 A 
ATOM     16  C1  <0> d          23.984  68.617 -27.447  0.00  0.00     0.001 A 
ATOM     17  C6  <0> d          25.314  68.839 -27.750  0.00  0.00     0.012 A 
ENDBRANCH  10  11
ENDBRANCH   1  10
BRANCH   5  18
ATOM     18  C11 <0> d          30.216  69.178 -22.964  0.00  0.00    -0.034 A 
ATOM     19  C16 <0> d          31.360  69.980 -22.896  0.00  0.00     0.012 A 
ATOM     20  C15 <0> d          31.436  70.987 -21.957  0.00  0.00     0.019 A 
ATOM     21  C14 <0> d          30.384  71.205 -21.083  0.00  0.00     0.006 A 
ATOM     22  C13 <0> d          29.248  70.415 -21.145  0.00  0.00     0.019 A 
ATOM     23  I1  <0> d          30.508  72.743 -19.666  0.00  0.00    -0.045 I 
ATOM     24  C12 <0> d          29.156  69.404 -22.077  0.00  0.00     0.012 A 
ENDBRANCH   5  18
TORSDOF 3
ENDMDL
MODEL 9
REMARK VINA RESULT:      -6.6      4.105      7.110
REMARK  3 active torsions:
REMARK  status: ('A' for Active; 'I' for Inactive)
REMARK    1  A    between atoms: C5_5  and  C7_7 
REMARK    2  A    between atoms: C7_7  and  N1_8 
REMARK    3  A    between atoms: C10_12  and  C11_13 
ROOT
ATOM      1  N1  <0> d          27.474  70.057 -24.558  0.00  0.00    -0.260 N 
ATOM      2  C8  <0> d          26.481  70.075 -25.471  0.00  0.00     0.278 A 
ATOM      3  O1  <0> d          25.417  70.659 -25.381  0.00  0.00    -0.265 OA
ATOM      4  C9  <0> d          26.944  69.246 -26.595  0.00  0.00     0.106 A 
ATOM      5  C10 <0> d          26.279  68.972 -27.745  0.00  0.00     0.046 C 
ATOM      6  N2  <0> d          28.216  68.796 -26.221  0.00  0.00    -0.304 N 
ATOM      7  C17 <0> d          28.490  69.306 -25.007  0.00  0.00     0.330 A 
ATOM      8  O2  <0> d          29.524  69.109 -24.396  0.00  0.00    -0.246 OA
ATOM      9  H12 <0> d          28.796  68.220 -26.744  0.00  0.00     0.171 HD
ENDROOT
BRANCH   1  10
ATOM     10  C7  <0> d          27.446  70.754 -23.269  0.00  0.00     0.178 C 
BRANCH  10  11
ATOM     11  C5  <0> d          26.823  69.859 -22.229  0.00  0.00    -0.001 A 
ATOM     12  C4  <0> d          27.629  69.139 -21.364  0.00  0.00     0.124 A 
ATOM     13  C3  <0> d          27.056  68.318 -20.407  0.00  0.00     0.043 A 
ATOM     14  F1  <0> d          28.974  69.238 -21.451  0.00  0.00    -0.205 F 
ATOM     15  C2  <0> d          25.680  68.219 -20.317  0.00  0.00     0.003 A 
ATOM     16  C1  <0> d          24.877  68.939 -21.182  0.00  0.00     0.001 A 
ATOM     17  C6  <0> d          25.448  69.763 -22.133  0.00  0.00     0.012 A 
ENDBRANCH  10  11
ENDBRANCH   1  10
BRANCH   5  18
ATOM     18  C11 <0> d          24.877  69.386 -27.899  0.00  0.00    -0.034 A 
ATOM     19  C16 <0> d          23.847  68.577 -27.408  0.00  0.00     0.012 A 
ATOM     20  C15 <0> d          22.534  68.972 -27.557  0.00  0.00     0.019 A 
ATOM     21  C14 <0> d          22.234  70.165 -28.192  0.00  0.00     0.006 A 
ATOM     22  C13 <0> d          23.248  70.971 -28.682  0.00  0.00     0.019 A 
ATOM     23  I1  <0> d          20.237  70.758 -28.406  0.00  0.00    -0.045 I 
ATOM     24  C12 <0> d          24.566  70.591 -28.541  0.00  0.00     0.012 A 
ENDBRANCH   5  18
TORSDOF 3
ENDMDL
MODEL 10
REMARK VINA RESULT:      -6.5     18.478     20.767
REMARK  3 active torsions:
REMARK  status: ('A' for Active; 'I' for Inactive)
REMARK    1  A    between atoms: C5_5  and  C7_7 
REMARK    2  A    between atoms: C7_7  and  N1_8 
REMARK    3  A    between atoms: C10_12  and  C11_13 
ROOT
ATOM      1  N1  <0> d          31.791  88.998 -20.180  0.00  0.00    -0.260 N 
ATOM      2  C8  <0> d          31.722  88.199 -19.095  0.00  0.00     0.278 A 
ATOM      3  O1  <0> d          31.276  88.490 -18.001  0.00  0.00    -0.265 OA
ATOM      4  C9  <0> d          32.295  86.906 -19.502  0.00  0.00     0.106 A 
ATOM      5  C10 <0> d          32.438  85.793 -18.742  0.00  0.00     0.046 C 
ATOM      6  N2  <0> d          32.668  87.075 -20.842  0.00  0.00    -0.304 N 
ATOM      7  C17 <0> d          32.345  88.330 -21.202  0.00  0.00     0.330 A 
ATOM      8  O2  <0> d          32.534  88.798 -22.309  0.00  0.00    -0.246 OA
ATOM      9  H12 <0> d          33.083  86.406 -21.409  0.00  0.00     0.171 HD
ENDROOT
BRANCH   1  10
ATOM     10  C7  <0> d          31.329  90.388 -20.233  0.00  0.00     0.178 C 
BRANCH  10  11
ATOM     11  C5  <0> d          32.515  91.314 -20.149  0.00  0.00    -0.001 A 
ATOM     12  C4  <0> d          32.923  92.019 -21.267  0.00  0.00     0.124 A 
ATOM     13  C3  <0> d          34.013  92.871 -21.188  0.00  0.00     0.043 A 
ATOM     14  F1  <0> d          32.260  91.878 -22.436  0.00  0.00    -0.205 F 
ATOM     15  C2  <0> d          34.690  93.015 -19.992  0.00  0.00     0.003 A 
ATOM     16  C1  <0> d          34.281  92.309 -18.876  0.00  0.00     0.001 A 
ATOM     17  C6  <0> d          33.191  91.464 -18.952  0.00  0.00     0.012 A 
ENDBRANCH  10  11
ENDBRANCH   1  10
BRANCH   5  18
ATOM     18  C11 <0> d          32.152  85.845 -17.301  0.00  0.00    -0.034 A 
ATOM     19  C16 <0> d          30.893  85.470 -16.820  0.00  0.00     0.012 A 
ATOM     20  C15 <0> d          30.633  85.523 -15.467  0.00  0.00     0.019 A 
ATOM     21  C14 <0> d          31.612  85.946 -14.585  0.00  0.00     0.006 A 
ATOM     22  C13 <0> d          32.861  86.320 -15.054  0.00  0.00     0.019 A 
ATOM     23  I1  <0> d          31.207  86.015 -12.532  0.00  0.00    -0.045 I 
ATOM     24  C12 <0> d          33.138  86.273 -16.404  0.00  0.00     0.012 A 
ENDBRANCH   5  18
TORSDOF 3
ENDMDL
