MODEL 1
REMARK VINA RESULT:      -8.3      0.000      0.000
REMARK  3 active torsions:
REMARK  status: ('A' for Active; 'I' for Inactive)
REMARK    1  A    between atoms: C6_6  and  C7_7 
REMARK    2  A    between atoms: C9_9  and  C14_19 
REMARK    3  A    between atoms: C12_14  and  C13_16 
ROOT
ATOM      1  C7  <0> d          29.441  69.923 -23.315  0.00  0.00     0.071 A 
ATOM      2  C8  <0> d          30.010  68.710 -23.767  0.00  0.00     0.069 A 
ATOM      3  C9  <0> d          29.685  68.241 -24.992  0.00  0.00     0.146 A 
ATOM      4  N1  <0> d          28.818  68.957 -25.773  0.00  0.00    -0.208 N 
ATOM      5  C10 <0> d          28.283  70.132 -25.305  0.00  0.00     0.176 A 
ATOM      6  N2  <0> d          28.605  70.590 -24.088  0.00  0.00    -0.227 NA
ATOM      7  C11 <0> d          27.448  70.626 -26.298  0.00  0.00     0.119 A 
ATOM      8  C12 <0> d          27.490  69.729 -27.370  0.00  0.00     0.179 A 
ATOM      9  N3  <0> d          28.308  68.734 -27.058  0.00  0.00    -0.157 NA
ATOM     10 Cl1  <0> d          26.520  72.091 -26.221  0.00  0.00    -0.077 Cl
ENDROOT
BRANCH   1  11
ATOM     11  C6  <0> d          29.785  70.447 -21.972  0.00  0.00    -0.007 A 
ATOM     12  C1  <0> d          30.478  69.646 -21.065  0.00  0.00     0.015 A 
ATOM     13  C2  <0> d          30.799  70.140 -19.817  0.00  0.00     0.020 A 
ATOM     14  C3  <0> d          30.425  71.424 -19.462  0.00  0.00     0.011 A 
ATOM     15  C4  <0> d          29.732  72.222 -20.356  0.00  0.00     0.020 A 
ATOM     16 Br1  <0> d          30.863  72.092 -17.748  0.00  0.00    -0.051 Br
ATOM     17  C5  <0> d          29.410  71.741 -21.609  0.00  0.00     0.015 A 
ENDBRANCH   1  11
BRANCH   3  18
ATOM     18  C14 <0> d          30.278  66.952 -25.496  0.00  0.00     0.434 C 
ATOM     19  F1  <0> d          30.198  66.915 -26.893  0.00  0.00    -0.165 F 
ATOM     20  F2  <0> d          31.619  66.870 -25.104  0.00  0.00    -0.165 F 
ATOM     21  F3  <0> d          29.569  65.870 -24.960  0.00  0.00    -0.165 F 
ENDBRANCH   3  18
BRANCH   8  22
ATOM     22  C13 <0> d          26.749  69.868 -28.640  0.00  0.00     0.232 C 
ATOM     23  O1  <0> d          25.535  69.888 -28.636  0.00  0.00    -0.643 OA
ATOM     24  O2  <0> d          27.419  69.972 -29.804  0.00  0.00    -0.643 OA
ENDBRANCH   8  22
TORSDOF 3
ENDMDL
MODEL 2
REMARK VINA RESULT:      -7.8      4.355      6.160
REMARK  3 active torsions:
REMARK  status: ('A' for Active; 'I' for Inactive)
REMARK    1  A    between atoms: C6_6  and  C7_7 
REMARK    2  A    between atoms: C9_9  and  C14_19 
REMARK    3  A    between atoms: C12_14  and  C13_16 
ROOT
ATOM      1  C7  <0> d          26.661  70.989 -26.266  0.00  0.00     0.071 A 
ATOM      2  C8  <0> d          26.652  70.179 -27.426  0.00  0.00     0.069 A 
ATOM      3  C9  <0> d          27.531  69.158 -27.528  0.00  0.00     0.146 A 
ATOM      4  N1  <0> d          28.406  68.925 -26.502  0.00  0.00    -0.208 N 
ATOM      5  C10 <0> d          28.389  69.729 -25.389  0.00  0.00     0.176 A 
ATOM      6  N2  <0> d          27.519  70.743 -25.294  0.00  0.00    -0.227 NA
ATOM      7  C11 <0> d          29.376  69.262 -24.531  0.00  0.00     0.119 A 
ATOM      8  C12 <0> d          29.986  68.164 -25.147  0.00  0.00     0.179 A 
ATOM      9  N3  <0> d          29.408  67.962 -26.322  0.00  0.00    -0.157 NA
ATOM     10 Cl1  <0> d          29.779  69.923 -22.977  0.00  0.00    -0.077 Cl
ENDROOT
BRANCH   1  11
ATOM     11  C6  <0> d          25.705  72.115 -26.142  0.00  0.00    -0.007 A 
ATOM     12  C1  <0> d          25.086  72.375 -24.919  0.00  0.00     0.015 A 
ATOM     13  C2  <0> d          24.200  73.426 -24.808  0.00  0.00     0.020 A 
ATOM     14  C3  <0> d          23.918  74.216 -25.909  0.00  0.00     0.011 A 
ATOM     15  C4  <0> d          24.526  73.959 -27.126  0.00  0.00     0.020 A 
ATOM     16 Br1  <0> d          22.698  75.651 -25.750  0.00  0.00    -0.051 Br
ATOM     17  C5  <0> d          25.417  72.914 -27.248  0.00  0.00     0.015 A 
ENDBRANCH   1  11
BRANCH   3  18
ATOM     18  C14 <0> d          27.541  68.281 -28.753  0.00  0.00     0.434 C 
ATOM     19  F1  <0> d          28.615  67.388 -28.679  0.00  0.00    -0.165 F 
ATOM     20  F2  <0> d          26.342  67.563 -28.822  0.00  0.00    -0.165 F 
ATOM     21  F3  <0> d          27.674  69.077 -29.896  0.00  0.00    -0.165 F 
ENDBRANCH   3  18
BRANCH   8  22
ATOM     22  C13 <0> d          31.090  67.363 -24.581  0.00  0.00     0.232 C 
ATOM     23  O1  <0> d          31.702  66.586 -25.286  0.00  0.00    -0.643 OA
ATOM     24  O2  <0> d          31.417  67.491 -23.280  0.00  0.00    -0.643 OA
ENDBRANCH   8  22
TORSDOF 3
ENDMDL
MODEL 3
REMARK VINA RESULT:      -7.6      2.412      3.001
REMARK  3 active torsions:
REMARK  status: ('A' for Active; 'I' for Inactive)
REMARK    1  A    between atoms: C6_6  and  C7_7 
REMARK    2  A    between atoms: C9_9  and  C14_19 
REMARK    3  A    between atoms: C12_14  and  C13_16 
ROOT
ATOM      1  C7  <0> d          29.408  69.882 -21.321  0.00  0.00     0.071 A 
ATOM      2  C8  <0> d          30.772  69.634 -21.601  0.00  0.00     0.069 A 
ATOM      3  C9  <0> d          31.136  69.264 -22.848  0.00  0.00     0.146 A 
ATOM      4  N1  <0> d          30.176  69.147 -23.817  0.00  0.00    -0.208 N 
ATOM      5  C10 <0> d          28.860  69.395 -23.513  0.00  0.00     0.176 A 
ATOM      6  N2  <0> d          28.503  69.757 -22.274  0.00  0.00    -0.227 NA
ATOM      7  C11 <0> d          28.126  69.194 -24.674  0.00  0.00     0.119 A 
ATOM      8  C12 <0> d          29.023  68.821 -25.681  0.00  0.00     0.179 A 
ATOM      9  N3  <0> d          30.245  68.793 -25.171  0.00  0.00    -0.157 NA
ATOM     10 Cl1  <0> d          26.408  69.373 -24.844  0.00  0.00    -0.077 Cl
ENDROOT
BRANCH   1  11
ATOM     11  C6  <0> d          28.994  70.285 -19.956  0.00  0.00    -0.007 A 
ATOM     12  C1  <0> d          29.577  69.682 -18.841  0.00  0.00     0.015 A 
ATOM     13  C2  <0> d          29.190  70.062 -17.573  0.00  0.00     0.020 A 
ATOM     14  C3  <0> d          28.218  71.033 -17.406  0.00  0.00     0.011 A 
ATOM     15  C4  <0> d          27.632  71.631 -18.508  0.00  0.00     0.020 A 
ATOM     16 Br1  <0> d          27.689  71.545 -15.664  0.00  0.00    -0.051 Br
ATOM     17  C5  <0> d          28.014  71.263 -19.781  0.00  0.00     0.015 A 
ENDBRANCH   1  11
BRANCH   3  18
ATOM     18  C14 <0> d          32.582  68.995 -23.172  0.00  0.00     0.434 C 
ATOM     19  F1  <0> d          32.956  69.738 -24.296  0.00  0.00    -0.165 F 
ATOM     20  F2  <0> d          33.380  69.364 -22.083  0.00  0.00    -0.165 F 
ATOM     21  F3  <0> d          32.756  67.631 -23.435  0.00  0.00    -0.165 F 
ENDBRANCH   3  18
BRANCH   8  22
ATOM     22  C13 <0> d          28.666  68.512 -27.080  0.00  0.00     0.232 C 
ATOM     23  O1  <0> d          28.070  69.330 -27.751  0.00  0.00    -0.643 OA
ATOM     24  O2  <0> d          29.002  67.321 -27.614  0.00  0.00    -0.643 OA
ENDBRANCH   8  22
TORSDOF 3
ENDMDL
MODEL 4
REMARK VINA RESULT:      -7.5      6.060      8.032
REMARK  3 active torsions:
REMARK  status: ('A' for Active; 'I' for Inactive)
REMARK    1  A    between atoms: C6_6  and  C7_7 
REMARK    2  A    between atoms: C9_9  and  C14_19 
REMARK    3  A    between atoms: C12_14  and  C13_16 
ROOT
ATOM      1  C7  <0> d          27.616  69.113 -22.296  0.00  0.00     0.071 A 
ATOM      2  C8  <0> d          26.655  68.621 -21.382  0.00  0.00     0.069 A 
ATOM      3  C9  <0> d          26.983  68.501 -20.076  0.00  0.00     0.146 A 
ATOM      4  N1  <0> d          28.236  68.868 -19.665  0.00  0.00    -0.208 N 
ATOM      5  C10 <0> d          29.146  69.342 -20.578  0.00  0.00     0.176 A 
ATOM      6  N2  <0> d          28.818  69.455 -21.872  0.00  0.00    -0.227 NA
ATOM      7  C11 <0> d          30.314  69.625 -19.883  0.00  0.00     0.119 A 
ATOM      8  C12 <0> d          30.091  69.312 -18.538  0.00  0.00     0.179 A 
ATOM      9  N3  <0> d          28.852  68.861 -18.407  0.00  0.00    -0.157 NA
ATOM     10 Cl1  <0> d          31.784  70.251 -20.561  0.00  0.00    -0.077 Cl
ENDROOT
BRANCH   1  11
ATOM     11  C6  <0> d          27.272  69.246 -23.731  0.00  0.00    -0.007 A 
ATOM     12  C1  <0> d          25.948  69.457 -24.117  0.00  0.00     0.015 A 
ATOM     13  C2  <0> d          25.635  69.583 -25.454  0.00  0.00     0.020 A 
ATOM     14  C3  <0> d          26.629  69.491 -26.413  0.00  0.00     0.011 A 
ATOM     15  C4  <0> d          27.943  69.277 -26.036  0.00  0.00     0.020 A 
ATOM     16 Br1  <0> d          26.190  69.660 -28.244  0.00  0.00    -0.051 Br
ATOM     17  C5  <0> d          28.270  69.153 -24.701  0.00  0.00     0.015 A 
ENDBRANCH   1  11
BRANCH   3  18
ATOM     18  C14 <0> d          25.978  67.980 -19.083  0.00  0.00     0.434 C 
ATOM     19  F1  <0> d          26.516  66.880 -18.406  0.00  0.00    -0.165 F 
ATOM     20  F2  <0> d          25.666  68.987 -18.162  0.00  0.00    -0.165 F 
ATOM     21  F3  <0> d          24.815  67.589 -19.757  0.00  0.00    -0.165 F 
ENDBRANCH   3  18
BRANCH   8  22
ATOM     22  C13 <0> d          31.073  69.462 -17.445  0.00  0.00     0.232 C 
ATOM     23  O1  <0> d          31.461  70.567 -17.123  0.00  0.00    -0.643 OA
ATOM     24  O2  <0> d          31.540  68.372 -16.804  0.00  0.00    -0.643 OA
ENDBRANCH   8  22
TORSDOF 3
ENDMDL
MODEL 5
REMARK VINA RESULT:      -7.5      5.019      7.296
REMARK  3 active torsions:
REMARK  status: ('A' for Active; 'I' for Inactive)
REMARK    1  A    between atoms: C6_6  and  C7_7 
REMARK    2  A    between atoms: C9_9  and  C14_19 
REMARK    3  A    between atoms: C12_14  and  C13_16 
ROOT
ATOM      1  C7  <0> d          26.326  69.766 -26.036  0.00  0.00     0.071 A 
ATOM      2  C8  <0> d          26.415  70.458 -24.806  0.00  0.00     0.069 A 
ATOM      3  C9  <0> d          27.478  70.243 -24.000  0.00  0.00     0.146 A 
ATOM      4  N1  <0> d          28.452  69.367 -24.398  0.00  0.00    -0.208 N 
ATOM      5  C10 <0> d          28.336  68.712 -25.599  0.00  0.00     0.176 A 
ATOM      6  N2  <0> d          27.278  68.924 -26.392  0.00  0.00    -0.227 NA
ATOM      7  C11 <0> d          29.452  67.897 -25.731  0.00  0.00     0.119 A 
ATOM      8  C12 <0> d          30.241  68.075 -24.589  0.00  0.00     0.179 A 
ATOM      9  N3  <0> d          29.646  68.951 -23.794  0.00  0.00    -0.157 NA
ATOM     10 Cl1  <0> d          29.805  66.849 -27.069  0.00  0.00    -0.077 Cl
ENDROOT
BRANCH   1  11
ATOM     11  C6  <0> d          25.163  69.988 -26.928  0.00  0.00    -0.007 A 
ATOM     12  C1  <0> d          25.198  71.003 -27.884  0.00  0.00     0.015 A 
ATOM     13  C2  <0> d          24.114  71.203 -28.713  0.00  0.00     0.020 A 
ATOM     14  C3  <0> d          22.990  70.405 -28.592  0.00  0.00     0.011 A 
ATOM     15  C4  <0> d          22.948  69.399 -27.642  0.00  0.00     0.020 A 
ATOM     16 Br1  <0> d          21.507  70.689 -29.730  0.00  0.00    -0.051 Br
ATOM     17  C5  <0> d          24.028  69.186 -26.810  0.00  0.00     0.015 A 
ENDBRANCH   1  11
BRANCH   3  18
ATOM     18  C14 <0> d          27.596  70.968 -22.685  0.00  0.00     0.434 C 
ATOM     19  F1  <0> d          28.758  71.747 -22.683  0.00  0.00    -0.165 F 
ATOM     20  F2  <0> d          26.481  71.794 -22.506  0.00  0.00    -0.165 F 
ATOM     21  F3  <0> d          27.658  70.036 -21.642  0.00  0.00    -0.165 F 
ENDBRANCH   3  18
BRANCH   8  22
ATOM     22  C13 <0> d          31.526  67.398 -24.316  0.00  0.00     0.232 C 
ATOM     23  O1  <0> d          32.024  66.676 -25.156  0.00  0.00    -0.643 OA
ATOM     24  O2  <0> d          32.145  67.581 -23.133  0.00  0.00    -0.643 OA
ENDBRANCH   8  22
TORSDOF 3
ENDMDL
MODEL 6
REMARK VINA RESULT:      -7.4      5.367      7.287
REMARK  3 active torsions:
REMARK  status: ('A' for Active; 'I' for Inactive)
REMARK    1  A    between atoms: C6_6  and  C7_7 
REMARK    2  A    between atoms: C9_9  and  C14_19 
REMARK    3  A    between atoms: C12_14  and  C13_16 
ROOT
ATOM      1  C7  <0> d          27.874  69.354 -23.224  0.00  0.00     0.071 A 
ATOM      2  C8  <0> d          29.239  69.325 -23.592  0.00  0.00     0.069 A 
ATOM      3  C9  <0> d          30.185  69.312 -22.627  0.00  0.00     0.146 A 
ATOM      4  N1  <0> d          29.800  69.317 -21.314  0.00  0.00    -0.208 N 
ATOM      5  C10 <0> d          28.466  69.344 -20.990  0.00  0.00     0.176 A 
ATOM      6  N2  <0> d          27.532  69.362 -21.949  0.00  0.00    -0.227 NA
ATOM      7  C11 <0> d          28.381  69.347 -19.604  0.00  0.00     0.119 A 
ATOM      8  C12 <0> d          29.686  69.321 -19.101  0.00  0.00     0.179 A 
ATOM      9  N3  <0> d          30.533  69.302 -20.120  0.00  0.00    -0.157 NA
ATOM     10 Cl1  <0> d          26.920  69.379 -18.667  0.00  0.00    -0.077 Cl
ENDROOT
BRANCH   1  11
ATOM     11  C6  <0> d          26.825  69.374 -24.272  0.00  0.00    -0.007 A 
ATOM     12  C1  <0> d          25.477  69.384 -23.912  0.00  0.00     0.015 A 
ATOM     13  C2  <0> d          24.506  69.406 -24.890  0.00  0.00     0.020 A 
ATOM     14  C3  <0> d          24.865  69.408 -26.227  0.00  0.00     0.011 A 
ATOM     15  C4  <0> d          26.201  69.393 -26.589  0.00  0.00     0.020 A 
ATOM     16 Br1  <0> d          23.527  69.432 -27.562  0.00  0.00    -0.051 Br
ATOM     17  C5  <0> d          27.182  69.376 -25.620  0.00  0.00     0.015 A 
ENDBRANCH   1  11
BRANCH   3  18
ATOM     18  C14 <0> d          31.646  69.281 -22.993  0.00  0.00     0.434 C 
ATOM     19  F1  <0> d          32.222  68.098 -22.518  0.00  0.00    -0.165 F 
ATOM     20  F2  <0> d          31.780  69.337 -24.385  0.00  0.00    -0.165 F 
ATOM     21  F3  <0> d          32.295  70.380 -22.419  0.00  0.00    -0.165 F 
ENDBRANCH   3  18
BRANCH   8  22
ATOM     22  C13 <0> d          30.058  69.314 -17.672  0.00  0.00     0.232 C 
ATOM     23  O1  <0> d          29.872  70.302 -16.990  0.00  0.00    -0.643 OA
ATOM     24  O2  <0> d          30.605  68.211 -17.123  0.00  0.00    -0.643 OA
ENDBRANCH   8  22
TORSDOF 3
ENDMDL
MODEL 7
REMARK VINA RESULT:      -7.4      5.568      6.817
REMARK  3 active torsions:
REMARK  status: ('A' for Active; 'I' for Inactive)
REMARK    1  A    between atoms: C6_6  and  C7_7 
REMARK    2  A    between atoms: C9_9  and  C14_19 
REMARK    3  A    between atoms: C12_14  and  C13_16 
ROOT
ATOM      1  C7  <0> d          27.573  69.393 -20.701  0.00  0.00     0.071 A 
ATOM      2  C8  <0> d          28.278  69.715 -19.518  0.00  0.00     0.069 A 
ATOM      3  C9  <0> d          29.619  69.878 -19.569  0.00  0.00     0.146 A 
ATOM      4  N1  <0> d          30.264  69.737 -20.768  0.00  0.00    -0.208 N 
ATOM      5  C10 <0> d          29.550  69.425 -21.898  0.00  0.00     0.176 A 
ATOM      6  N2  <0> d          28.222  69.260 -21.843  0.00  0.00    -0.227 NA
ATOM      7  C11 <0> d          30.457  69.343 -22.946  0.00  0.00     0.119 A 
ATOM      8  C12 <0> d          31.728  69.612 -22.426  0.00  0.00     0.179 A 
ATOM      9  N3  <0> d          31.613  69.848 -21.127  0.00  0.00    -0.157 NA
ATOM     10 Cl1  <0> d          30.083  68.974 -24.600  0.00  0.00    -0.077 Cl
ENDROOT
BRANCH   1  11
ATOM     11  C6  <0> d          26.103  69.207 -20.660  0.00  0.00    -0.007 A 
ATOM     12  C1  <0> d          25.352  69.311 -21.830  0.00  0.00     0.015 A 
ATOM     13  C2  <0> d          23.985  69.133 -21.787  0.00  0.00     0.020 A 
ATOM     14  C3  <0> d          23.357  68.862 -20.583  0.00  0.00     0.011 A 
ATOM     15  C4  <0> d          24.098  68.763 -19.418  0.00  0.00     0.020 A 
ATOM     16 Br1  <0> d          21.482  68.625 -20.531  0.00  0.00    -0.051 Br
ATOM     17  C5  <0> d          25.466  68.934 -19.449  0.00  0.00     0.015 A 
ENDBRANCH   1  11
BRANCH   3  18
ATOM     18  C14 <0> d          30.392  70.222 -18.323  0.00  0.00     0.434 C 
ATOM     19  F1  <0> d          31.120  71.398 -18.533  0.00  0.00    -0.165 F 
ATOM     20  F2  <0> d          29.503  70.409 -17.258  0.00  0.00    -0.165 F 
ATOM     21  F3  <0> d          31.272  69.177 -18.016  0.00  0.00    -0.165 F 
ENDBRANCH   3  18
BRANCH   8  22
ATOM     22  C13 <0> d          32.988  69.632 -23.197  0.00  0.00     0.232 C 
ATOM     23  O1  <0> d          33.327  68.654 -23.832  0.00  0.00    -0.643 OA
ATOM     24  O2  <0> d          33.762  70.735 -23.194  0.00  0.00    -0.643 OA
ENDBRANCH   8  22
TORSDOF 3
ENDMDL
MODEL 8
REMARK VINA RESULT:      -7.3      4.488      6.742
REMARK  3 active torsions:
REMARK  status: ('A' for Active; 'I' for Inactive)
REMARK    1  A    between atoms: C6_6  and  C7_7 
REMARK    2  A    between atoms: C9_9  and  C14_19 
REMARK    3  A    between atoms: C12_14  and  C13_16 
ROOT
ATOM      1  C7  <0> d          27.279  69.589 -25.792  0.00  0.00     0.071 A 
ATOM      2  C8  <0> d          28.172  68.558 -26.166  0.00  0.00     0.069 A 
ATOM      3  C9  <0> d          29.167  68.205 -25.322  0.00  0.00     0.146 A 
ATOM      4  N1  <0> d          29.281  68.845 -24.118  0.00  0.00    -0.208 N 
ATOM      5  C10 <0> d          28.397  69.841 -23.785  0.00  0.00     0.176 A 
ATOM      6  N2  <0> d          27.416  70.192 -24.626  0.00  0.00    -0.227 NA
ATOM      7  C11 <0> d          28.756  70.304 -22.526  0.00  0.00     0.119 A 
ATOM      8  C12 <0> d          29.872  69.569 -22.109  0.00  0.00     0.179 A 
ATOM      9  N3  <0> d          30.184  68.699 -23.057  0.00  0.00    -0.157 NA
ATOM     10 Cl1  <0> d          27.966  71.566 -21.633  0.00  0.00    -0.077 Cl
ENDROOT
BRANCH   1  11
ATOM     11  C6  <0> d          26.187  69.991 -26.710  0.00  0.00    -0.007 A 
ATOM     12  C1  <0> d          26.472  70.739 -27.851  0.00  0.00     0.015 A 
ATOM     13  C2  <0> d          25.452  71.108 -28.704  0.00  0.00     0.020 A 
ATOM     14  C3  <0> d          24.146  70.745 -28.422  0.00  0.00     0.011 A 
ATOM     15  C4  <0> d          23.857  70.006 -27.288  0.00  0.00     0.020 A 
ATOM     16 Br1  <0> d          22.753  71.259 -29.593  0.00  0.00    -0.051 Br
ATOM     17  C5  <0> d          24.869  69.627 -26.431  0.00  0.00     0.015 A 
ENDBRANCH   1  11
BRANCH   3  18
ATOM     18  C14 <0> d          30.131  67.110 -25.697  0.00  0.00     0.434 C 
ATOM     19  F1  <0> d          29.755  65.919 -25.065  0.00  0.00    -0.165 F 
ATOM     20  F2  <0> d          30.112  66.926 -27.084  0.00  0.00    -0.165 F 
ATOM     21  F3  <0> d          31.422  67.466 -25.292  0.00  0.00    -0.165 F 
ENDBRANCH   3  18
BRANCH   8  22
ATOM     22  C13 <0> d          30.581  69.735 -20.824  0.00  0.00     0.232 C 
ATOM     23  O1  <0> d          31.486  70.539 -20.728  0.00  0.00    -0.643 OA
ATOM     24  O2  <0> d          30.224  68.994 -19.757  0.00  0.00    -0.643 OA
ENDBRANCH   8  22
TORSDOF 3
ENDMDL
MODEL 9
REMARK VINA RESULT:      -7.2     16.183     18.513
REMARK  3 active torsions:
REMARK  status: ('A' for Active; 'I' for Inactive)
REMARK    1  A    between atoms: C6_6  and  C7_7 
REMARK    2  A    between atoms: C9_9  and  C14_19 
REMARK    3  A    between atoms: C12_14  and  C13_16 
ROOT
ATOM      1  C7  <0> d          23.782  55.210 -33.135  0.00  0.00     0.071 A 
ATOM      2  C8  <0> d          22.385  55.429 -33.115  0.00  0.00     0.069 A 
ATOM      3  C9  <0> d          21.775  55.714 -31.943  0.00  0.00     0.146 A 
ATOM      4  N1  <0> d          22.526  55.795 -30.801  0.00  0.00    -0.208 N 
ATOM      5  C10 <0> d          23.880  55.577 -30.855  0.00  0.00     0.176 A 
ATOM      6  N2  <0> d          24.480  55.290 -32.017  0.00  0.00    -0.227 NA
ATOM      7  C11 <0> d          24.369  55.718 -29.563  0.00  0.00     0.119 A 
ATOM      8  C12 <0> d          23.285  56.024 -28.733  0.00  0.00     0.179 A 
ATOM      9  N3  <0> d          22.186  56.071 -29.471  0.00  0.00    -0.157 NA
ATOM     10 Cl1  <0> d          26.024  55.545 -29.068  0.00  0.00    -0.077 Cl
ENDROOT
BRANCH   1  11
ATOM     11  C6  <0> d          24.463  54.891 -34.411  0.00  0.00    -0.007 A 
ATOM     12  C1  <0> d          25.690  54.227 -34.403  0.00  0.00     0.015 A 
ATOM     13  C2  <0> d          26.318  53.930 -35.594  0.00  0.00     0.020 A 
ATOM     14  C3  <0> d          25.739  54.299 -36.796  0.00  0.00     0.011 A 
ATOM     15  C4  <0> d          24.525  54.963 -36.810  0.00  0.00     0.020 A 
ATOM     16 Br1  <0> d          26.610  53.893 -38.424  0.00  0.00    -0.051 Br
ATOM     17  C5  <0> d          23.884  55.261 -35.625  0.00  0.00     0.015 A 
ENDBRANCH   1  11
BRANCH   3  18
ATOM     18  C14 <0> d          20.288  55.952 -31.896  0.00  0.00     0.434 C 
ATOM     19  F1  <0> d          19.728  55.659 -33.144  0.00  0.00    -0.165 F 
ATOM     20  F2  <0> d          19.714  55.125 -30.923  0.00  0.00    -0.165 F 
ATOM     21  F3  <0> d          20.039  57.291 -31.575  0.00  0.00    -0.165 F 
ENDBRANCH   3  18
BRANCH   8  22
ATOM     22  C13 <0> d          23.355  56.259 -27.276  0.00  0.00     0.232 C 
ATOM     23  O1  <0> d          23.381  55.318 -26.509  0.00  0.00    -0.643 OA
ATOM     24  O2  <0> d          23.387  57.518 -26.797  0.00  0.00    -0.643 OA
ENDBRANCH   8  22
TORSDOF 3
ENDMDL
MODEL 10
REMARK VINA RESULT:      -6.9     16.885     19.082
REMARK  3 active torsions:
REMARK  status: ('A' for Active; 'I' for Inactive)
REMARK    1  A    between atoms: C6_6  and  C7_7 
REMARK    2  A    between atoms: C9_9  and  C14_19 
REMARK    3  A    between atoms: C12_14  and  C13_16 
ROOT
ATOM      1  C7  <0> d          24.739  55.021 -34.673  0.00  0.00     0.071 A 
ATOM      2  C8  <0> d          23.639  55.797 -35.106  0.00  0.00     0.069 A 
ATOM      3  C9  <0> d          22.786  56.306 -34.191  0.00  0.00     0.146 A 
ATOM      4  N1  <0> d          23.011  56.069 -32.862  0.00  0.00    -0.208 N 
ATOM      5  C10 <0> d          24.090  55.313 -32.473  0.00  0.00     0.176 A 
ATOM      6  N2  <0> d          24.930  54.805 -33.384  0.00  0.00    -0.227 NA
ATOM      7  C11 <0> d          24.060  55.239 -31.087  0.00  0.00     0.119 A 
ATOM      8  C12 <0> d          22.946  55.963 -30.649  0.00  0.00     0.179 A 
ATOM      9  N3  <0> d          22.321  56.459 -31.707  0.00  0.00    -0.157 NA
ATOM     10 Cl1  <0> d          25.198  54.399 -30.081  0.00  0.00    -0.077 Cl
ENDROOT
BRANCH   1  11
ATOM     11  C6  <0> d          25.681  54.452 -35.665  0.00  0.00    -0.007 A 
ATOM     12  C1  <0> d          25.461  54.644 -37.029  0.00  0.00     0.015 A 
ATOM     13  C2  <0> d          26.342  54.114 -37.949  0.00  0.00     0.020 A 
ATOM     14  C3  <0> d          27.438  53.385 -37.520  0.00  0.00     0.011 A 
ATOM     15  C4  <0> d          27.658  53.188 -36.168  0.00  0.00     0.020 A 
ATOM     16 Br1  <0> d          28.638  52.658 -38.787  0.00  0.00    -0.051 Br
ATOM     17  C5  <0> d          26.787  53.716 -35.239  0.00  0.00     0.015 A 
ENDBRANCH   1  11
BRANCH   3  18
ATOM     18  C14 <0> d          21.606  57.136 -34.627  0.00  0.00     0.434 C 
ATOM     19  F1  <0> d          21.786  58.459 -34.211  0.00  0.00    -0.165 F 
ATOM     20  F2  <0> d          21.499  57.097 -36.022  0.00  0.00    -0.165 F 
ATOM     21  F3  <0> d          20.437  56.621 -34.056  0.00  0.00    -0.165 F 
ENDBRANCH   3  18
BRANCH   8  22
ATOM     22  C13 <0> d          22.537  56.147 -29.242  0.00  0.00     0.232 C 
ATOM     23  O1  <0> d          23.231  56.796 -28.487  0.00  0.00    -0.643 OA
ATOM     24  O2  <0> d          21.393  55.591 -28.796  0.00  0.00    -0.643 OA
ENDBRANCH   8  22
TORSDOF 3
ENDMDL
