MODEL 1
REMARK VINA RESULT:      -6.7      0.000      0.000
REMARK  4 active torsions:
REMARK  status: ('A' for Active; 'I' for Inactive)
REMARK    1  A    between atoms: C4_4  and  C7_7 
REMARK    2  A    between atoms: C7_7  and  C8_8 
REMARK    3  A    between atoms: N1_11  and  S1_12 
REMARK    4  A    between atoms: S1_12  and  C11_15 
ROOT
ATOM      1  C8  <0> d          29.405  68.792 -24.300  0.00  0.00     0.093 A 
ATOM      2  C9  <0> d          30.367  66.835 -24.894  0.00  0.00     0.142 A 
ATOM      3  C10 <0> d          29.523  67.342 -26.082  0.00  0.00     0.162 A 
ATOM      4  N1  <0> d          28.955  68.602 -25.573  0.00  0.00    -0.259 N 
ATOM      5  N2  <0> d          30.177  67.865 -23.858  0.00  0.00    -0.377 N 
ATOM      6  H16 <0> d          30.599  67.844 -22.922  0.00  0.00     0.160 HD
ENDROOT
BRANCH   4   7
ATOM      7  S1  <0> d          27.948  69.618 -26.407  0.00  0.00     0.266 S 
ATOM      8  O1  <0> d          27.371  68.850 -27.453  0.00  0.00    -0.200 OA
ATOM      9  O2  <0> d          28.686  70.808 -26.653  0.00  0.00    -0.200 OA
BRANCH   7  10
ATOM     10  C11 <0> d          26.633  70.057 -25.319  0.00  0.00     0.080 A 
ATOM     11  C16 <0> d          25.684  69.115 -24.968  0.00  0.00     0.026 A 
ATOM     12  C15 <0> d          24.652  69.458 -24.114  0.00  0.00     0.020 A 
ATOM     13  C14 <0> d          24.569  70.743 -23.611  0.00  0.00     0.006 A 
ATOM     14  C13 <0> d          25.519  71.686 -23.963  0.00  0.00     0.020 A 
ATOM     15  I1  <0> d          23.006  71.264 -22.319  0.00  0.00    -0.045 I 
ATOM     16  C12 <0> d          26.551  71.342 -24.816  0.00  0.00     0.026 A 
ENDBRANCH   7  10
ENDBRANCH   4   7
BRANCH   1  17
ATOM     17  C7  <0> d          29.024  69.993 -23.473  0.00  0.00     0.115 C 
BRANCH  17  18
ATOM     18  C4  <0> d          28.653  69.547 -22.082  0.00  0.00    -0.051 A 
ATOM     19  C3  <0> d          29.503  69.808 -21.023  0.00  0.00     0.007 A 
ATOM     20  C2  <0> d          29.162  69.399 -19.747  0.00  0.00     0.001 A 
ATOM     21  C1  <0> d          27.973  68.730 -19.530  0.00  0.00     0.000 A 
ATOM     22  C6  <0> d          27.124  68.469 -20.589  0.00  0.00     0.001 A 
ATOM     23  C5  <0> d          27.461  68.881 -21.863  0.00  0.00     0.007 A 
ENDBRANCH  17  18
ENDBRANCH   1  17
TORSDOF 4
ENDMDL
MODEL 2
REMARK VINA RESULT:      -6.7      2.747      3.762
REMARK  4 active torsions:
REMARK  status: ('A' for Active; 'I' for Inactive)
REMARK    1  A    between atoms: C4_4  and  C7_7 
REMARK    2  A    between atoms: C7_7  and  C8_8 
REMARK    3  A    between atoms: N1_11  and  S1_12 
REMARK    4  A    between atoms: S1_12  and  C11_15 
ROOT
ATOM      1  C8  <0> d          28.730  68.662 -23.756  0.00  0.00     0.093 A 
ATOM      2  C9  <0> d          27.001  69.302 -22.450  0.00  0.00     0.142 A 
ATOM      3  C10 <0> d          26.681  69.697 -23.906  0.00  0.00     0.162 A 
ATOM      4  N1  <0> d          27.870  69.235 -24.644  0.00  0.00    -0.259 N 
ATOM      5  N2  <0> d          28.326  68.666 -22.536  0.00  0.00    -0.377 N 
ATOM      6  H16 <0> d          28.850  68.284 -21.740  0.00  0.00     0.160 HD
ENDROOT
BRANCH   4   7
ATOM      7  S1  <0> d          28.115  69.380 -26.276  0.00  0.00     0.266 S 
ATOM      8  O1  <0> d          28.348  68.069 -26.770  0.00  0.00    -0.200 OA
ATOM      9  O2  <0> d          29.046  70.438 -26.453  0.00  0.00    -0.200 OA
BRANCH   7  10
ATOM     10  C11 <0> d          26.595  69.922 -26.984  0.00  0.00     0.080 A 
ATOM     11  C16 <0> d          25.592  69.009 -27.249  0.00  0.00     0.026 A 
ATOM     12  C15 <0> d          24.399  69.433 -27.805  0.00  0.00     0.020 A 
ATOM     13  C14 <0> d          24.210  70.772 -28.096  0.00  0.00     0.006 A 
ATOM     14  C13 <0> d          25.214  71.686 -27.831  0.00  0.00     0.020 A 
ATOM     15  I1  <0> d          22.404  71.416 -28.938  0.00  0.00    -0.045 I 
ATOM     16  C12 <0> d          26.406  71.260 -27.274  0.00  0.00     0.026 A 
ENDBRANCH   7  10
ENDBRANCH   4   7
BRANCH   1  17
ATOM     17  C7  <0> d          30.054  68.072 -24.170  0.00  0.00     0.115 C 
BRANCH  17  18
ATOM     18  C4  <0> d          31.174  68.876 -23.561  0.00  0.00    -0.051 A 
ATOM     19  C3  <0> d          30.893  69.852 -22.622  0.00  0.00     0.007 A 
ATOM     20  C2  <0> d          31.920  70.590 -22.064  0.00  0.00     0.001 A 
ATOM     21  C1  <0> d          33.227  70.353 -22.445  0.00  0.00     0.000 A 
ATOM     22  C6  <0> d          33.508  69.378 -23.383  0.00  0.00     0.001 A 
ATOM     23  C5  <0> d          32.483  68.636 -23.937  0.00  0.00     0.007 A 
ENDBRANCH  17  18
ENDBRANCH   1  17
TORSDOF 4
ENDMDL
MODEL 3
REMARK VINA RESULT:      -6.5      3.638      6.314
REMARK  4 active torsions:
REMARK  status: ('A' for Active; 'I' for Inactive)
REMARK    1  A    between atoms: C4_4  and  C7_7 
REMARK    2  A    between atoms: C7_7  and  C8_8 
REMARK    3  A    between atoms: N1_11  and  S1_12 
REMARK    4  A    between atoms: S1_12  and  C11_15 
ROOT
ATOM      1  C8  <0> d          25.428  68.829 -27.406  0.00  0.00     0.093 A 
ATOM      2  C9  <0> d          27.021  67.947 -28.744  0.00  0.00     0.142 A 
ATOM      3  C10 <0> d          27.643  69.117 -27.954  0.00  0.00     0.162 A 
ATOM      4  N1  <0> d          26.518  69.601 -27.135  0.00  0.00    -0.259 N 
ATOM      5  N2  <0> d          25.624  67.907 -28.279  0.00  0.00    -0.377 N 
ATOM      6  H16 <0> d          24.913  67.242 -28.606  0.00  0.00     0.160 HD
ENDROOT
BRANCH   4   7
ATOM      7  S1  <0> d          26.572  70.862 -26.062  0.00  0.00     0.266 S 
ATOM      8  O1  <0> d          25.339  71.556 -26.190  0.00  0.00    -0.200 OA
ATOM      9  O2  <0> d          27.828  71.499 -26.248  0.00  0.00    -0.200 OA
BRANCH   7  10
ATOM     10  C11 <0> d          26.593  70.167 -24.443  0.00  0.00     0.080 A 
ATOM     11  C16 <0> d          25.425  70.096 -23.706  0.00  0.00     0.026 A 
ATOM     12  C15 <0> d          25.441  69.551 -22.436  0.00  0.00     0.020 A 
ATOM     13  C14 <0> d          26.624  69.078 -21.902  0.00  0.00     0.006 A 
ATOM     14  C13 <0> d          27.793  69.149 -22.639  0.00  0.00     0.020 A 
ATOM     15  I1  <0> d          26.649  68.253 -19.977  0.00  0.00    -0.045 I 
ATOM     16  C12 <0> d          27.776  69.693 -23.909  0.00  0.00     0.026 A 
ENDBRANCH   7  10
ENDBRANCH   4   7
BRANCH   1  17
ATOM     17  C7  <0> d          24.094  69.041 -26.736  0.00  0.00     0.115 C 
BRANCH  17  18
ATOM     18  C4  <0> d          23.049  69.335 -27.782  0.00  0.00    -0.051 A 
ATOM     19  C3  <0> d          22.002  68.453 -27.979  0.00  0.00     0.007 A 
ATOM     20  C2  <0> d          21.044  68.723 -28.938  0.00  0.00     0.001 A 
ATOM     21  C1  <0> d          21.132  69.873 -29.699  0.00  0.00     0.000 A 
ATOM     22  C6  <0> d          22.178  70.754 -29.501  0.00  0.00     0.001 A 
ATOM     23  C5  <0> d          23.134  70.488 -28.540  0.00  0.00     0.007 A 
ENDBRANCH  17  18
ENDBRANCH   1  17
TORSDOF 4
ENDMDL
MODEL 4
REMARK VINA RESULT:      -6.4     18.967     21.475
REMARK  4 active torsions:
REMARK  status: ('A' for Active; 'I' for Inactive)
REMARK    1  A    between atoms: C4_4  and  C7_7 
REMARK    2  A    between atoms: C7_7  and  C8_8 
REMARK    3  A    between atoms: N1_11  and  S1_12 
REMARK    4  A    between atoms: S1_12  and  C11_15 
ROOT
ATOM      1  C8  <0> d          28.599  59.824  -7.440  0.00  0.00     0.093 A 
ATOM      2  C9  <0> d          27.680  59.949  -9.501  0.00  0.00     0.142 A 
ATOM      3  C10 <0> d          26.806  59.018  -8.635  0.00  0.00     0.162 A 
ATOM      4  N1  <0> d          27.504  59.018  -7.338  0.00  0.00    -0.259 N 
ATOM      5  N2  <0> d          28.764  60.363  -8.595  0.00  0.00    -0.377 N 
ATOM      6  H16 <0> d          29.537  60.990  -8.848  0.00  0.00     0.160 HD
ENDROOT
BRANCH   4   7
ATOM      7  S1  <0> d          27.035  58.188  -5.984  0.00  0.00     0.266 S 
ATOM      8  O1  <0> d          25.779  57.597  -6.285  0.00  0.00    -0.200 OA
ATOM      9  O2  <0> d          27.219  59.068  -4.884  0.00  0.00    -0.200 OA
BRANCH   7  10
ATOM     10  C11 <0> d          28.175  56.863  -5.765  0.00  0.00     0.080 A 
ATOM     11  C16 <0> d          28.571  56.105  -6.851  0.00  0.00     0.026 A 
ATOM     12  C15 <0> d          29.466  55.066  -6.680  0.00  0.00     0.020 A 
ATOM     13  C14 <0> d          29.965  54.782  -5.422  0.00  0.00     0.006 A 
ATOM     14  C13 <0> d          29.568  55.540  -4.335  0.00  0.00     0.020 A 
ATOM     15  I1  <0> d          31.320  53.207  -5.162  0.00  0.00    -0.045 I 
ATOM     16  C12 <0> d          28.674  56.580  -4.507  0.00  0.00     0.026 A 
ENDBRANCH   7  10
ENDBRANCH   4   7
BRANCH   1  17
ATOM     17  C7  <0> d          29.545  60.061  -6.292  0.00  0.00     0.115 C 
BRANCH  17  18
ATOM     18  C4  <0> d          30.689  59.083  -6.373  0.00  0.00    -0.051 A 
ATOM     19  C3  <0> d          31.046  58.538  -7.593  0.00  0.00     0.007 A 
ATOM     20  C2  <0> d          32.096  57.641  -7.667  0.00  0.00     0.001 A 
ATOM     21  C1  <0> d          32.786  57.288  -6.524  0.00  0.00     0.000 A 
ATOM     22  C6  <0> d          32.428  57.832  -5.305  0.00  0.00     0.001 A 
ATOM     23  C5  <0> d          31.384  58.733  -5.230  0.00  0.00     0.007 A 
ENDBRANCH  17  18
ENDBRANCH   1  17
TORSDOF 4
ENDMDL
MODEL 5
REMARK VINA RESULT:      -6.4     19.925     21.819
REMARK  4 active torsions:
REMARK  status: ('A' for Active; 'I' for Inactive)
REMARK    1  A    between atoms: C4_4  and  C7_7 
REMARK    2  A    between atoms: C7_7  and  C8_8 
REMARK    3  A    between atoms: N1_11  and  S1_12 
REMARK    4  A    between atoms: S1_12  and  C11_15 
ROOT
ATOM      1  C8  <0> d          29.872  60.065  -6.791  0.00  0.00     0.093 A 
ATOM      2  C9  <0> d          29.052  61.647  -5.400  0.00  0.00     0.142 A 
ATOM      3  C10 <0> d          28.003  60.524  -5.531  0.00  0.00     0.162 A 
ATOM      4  N1  <0> d          28.648  59.571  -6.452  0.00  0.00    -0.259 N 
ATOM      5  N2  <0> d          30.161  61.199  -6.259  0.00  0.00    -0.377 N 
ATOM      6  H16 <0> d          31.035  61.716  -6.411  0.00  0.00     0.160 HD
ENDROOT
BRANCH   4   7
ATOM      7  S1  <0> d          27.999  58.141  -6.979  0.00  0.00     0.266 S 
ATOM      8  O1  <0> d          28.328  58.029  -8.356  0.00  0.00    -0.200 OA
ATOM      9  O2  <0> d          26.658  58.108  -6.510  0.00  0.00    -0.200 OA
BRANCH   7  10
ATOM     10  C11 <0> d          28.856  56.844  -6.149  0.00  0.00     0.080 A 
ATOM     11  C16 <0> d          29.203  55.696  -6.836  0.00  0.00     0.026 A 
ATOM     12  C15 <0> d          29.875  54.678  -6.186  0.00  0.00     0.020 A 
ATOM     13  C14 <0> d          30.199  54.807  -4.848  0.00  0.00     0.006 A 
ATOM     14  C13 <0> d          29.850  55.956  -4.160  0.00  0.00     0.020 A 
ATOM     15  I1  <0> d          31.216  53.265  -3.862  0.00  0.00    -0.045 I 
ATOM     16  C12 <0> d          29.179  56.974  -4.812  0.00  0.00     0.026 A 
ENDBRANCH   7  10
ENDBRANCH   4   7
BRANCH   1  17
ATOM     17  C7  <0> d          30.813  59.341  -7.719  0.00  0.00     0.115 C 
BRANCH  17  18
ATOM     18  C4  <0> d          31.750  58.480  -6.913  0.00  0.00    -0.051 A 
ATOM     19  C3  <0> d          32.266  57.320  -7.461  0.00  0.00     0.007 A 
ATOM     20  C2  <0> d          33.126  56.529  -6.721  0.00  0.00     0.001 A 
ATOM     21  C1  <0> d          33.470  56.899  -5.435  0.00  0.00     0.000 A 
ATOM     22  C6  <0> d          32.954  58.058  -4.887  0.00  0.00     0.001 A 
ATOM     23  C5  <0> d          32.099  58.851  -5.627  0.00  0.00     0.007 A 
ENDBRANCH  17  18
ENDBRANCH   1  17
TORSDOF 4
ENDMDL
MODEL 6
REMARK VINA RESULT:      -6.3      5.257      7.467
REMARK  4 active torsions:
REMARK  status: ('A' for Active; 'I' for Inactive)
REMARK    1  A    between atoms: C4_4  and  C7_7 
REMARK    2  A    between atoms: C7_7  and  C8_8 
REMARK    3  A    between atoms: N1_11  and  S1_12 
REMARK    4  A    between atoms: S1_12  and  C11_15 
ROOT
ATOM      1  C8  <0> d          29.933  70.077 -20.199  0.00  0.00     0.093 A 
ATOM      2  C9  <0> d          30.188  69.028 -18.213  0.00  0.00     0.142 A 
ATOM      3  C10 <0> d          30.000  70.535 -17.945  0.00  0.00     0.162 A 
ATOM      4  N1  <0> d          29.850  71.097 -19.298  0.00  0.00    -0.259 N 
ATOM      5  N2  <0> d          30.123  68.917 -19.680  0.00  0.00    -0.377 N 
ATOM      6  H16 <0> d          30.216  68.042 -20.210  0.00  0.00     0.160 HD
ENDROOT
BRANCH   4   7
ATOM      7  S1  <0> d          29.613  72.696 -19.663  0.00  0.00     0.266 S 
ATOM      8  O1  <0> d          28.319  72.793 -20.241  0.00  0.00    -0.200 OA
ATOM      9  O2  <0> d          30.784  73.135 -20.337  0.00  0.00    -0.200 OA
BRANCH   7  10
ATOM     10  C11 <0> d          29.550  73.574 -18.137  0.00  0.00     0.080 A 
ATOM     11  C16 <0> d          30.718  74.023 -17.550  0.00  0.00     0.026 A 
ATOM     12  C15 <0> d          30.670  74.712 -16.353  0.00  0.00     0.020 A 
ATOM     13  C14 <0> d          29.453  74.952 -15.741  0.00  0.00     0.006 A 
ATOM     14  C13 <0> d          28.284  74.501 -16.328  0.00  0.00     0.020 A 
ATOM     15  I1  <0> d          29.380  75.995 -13.927  0.00  0.00    -0.045 I 
ATOM     16  C12 <0> d          28.333  73.813 -17.526  0.00  0.00     0.026 A 
ENDBRANCH   7  10
ENDBRANCH   4   7
BRANCH   1  17
ATOM     17  C7  <0> d          29.815  70.292 -21.685  0.00  0.00     0.115 C 
BRANCH  17  18
ATOM     18  C4  <0> d          31.105  69.891 -22.354  0.00  0.00    -0.051 A 
ATOM     19  C3  <0> d          31.111  68.868 -23.285  0.00  0.00     0.007 A 
ATOM     20  C2  <0> d          32.295  68.501 -23.899  0.00  0.00     0.001 A 
ATOM     21  C1  <0> d          33.470  69.155 -23.582  0.00  0.00     0.000 A 
ATOM     22  C6  <0> d          33.463  70.177 -22.651  0.00  0.00     0.001 A 
ATOM     23  C5  <0> d          32.280  70.549 -22.042  0.00  0.00     0.007 A 
ENDBRANCH  17  18
ENDBRANCH   1  17
TORSDOF 4
ENDMDL
MODEL 7
REMARK VINA RESULT:      -6.3      3.014      4.425
REMARK  4 active torsions:
REMARK  status: ('A' for Active; 'I' for Inactive)
REMARK    1  A    between atoms: C4_4  and  C7_7 
REMARK    2  A    between atoms: C7_7  and  C8_8 
REMARK    3  A    between atoms: N1_11  and  S1_12 
REMARK    4  A    between atoms: S1_12  and  C11_15 
ROOT
ATOM      1  C8  <0> d          28.647  69.631 -21.702  0.00  0.00     0.093 A 
ATOM      2  C9  <0> d          28.171  69.284 -19.520  0.00  0.00     0.142 A 
ATOM      3  C10 <0> d          27.382  70.520 -19.998  0.00  0.00     0.162 A 
ATOM      4  N1  <0> d          27.777  70.640 -21.413  0.00  0.00    -0.259 N 
ATOM      5  N2  <0> d          28.915  68.852 -20.716  0.00  0.00    -0.377 N 
ATOM      6  H16 <0> d          29.553  68.049 -20.755  0.00  0.00     0.160 HD
ENDROOT
BRANCH   4   7
ATOM      7  S1  <0> d          27.247  71.797 -22.472  0.00  0.00     0.266 S 
ATOM      8  O1  <0> d          28.404  72.342 -23.090  0.00  0.00    -0.200 OA
ATOM      9  O2  <0> d          26.313  72.599 -21.763  0.00  0.00    -0.200 OA
BRANCH   7  10
ATOM     10  C11 <0> d          26.342  70.970 -23.738  0.00  0.00     0.080 A 
ATOM     11  C16 <0> d          26.550  71.299 -25.064  0.00  0.00     0.026 A 
ATOM     12  C15 <0> d          25.840  70.651 -26.057  0.00  0.00     0.020 A 
ATOM     13  C14 <0> d          24.922  69.672 -25.724  0.00  0.00     0.006 A 
ATOM     14  C13 <0> d          24.713  69.343 -24.396  0.00  0.00     0.020 A 
ATOM     15  I1  <0> d          23.845  68.690 -27.228  0.00  0.00    -0.045 I 
ATOM     16  C12 <0> d          25.424  69.992 -23.404  0.00  0.00     0.026 A 
ENDBRANCH   7  10
ENDBRANCH   4   7
BRANCH   1  17
ATOM     17  C7  <0> d          29.251  69.445 -23.070  0.00  0.00     0.115 C 
BRANCH  17  18
ATOM     18  C4  <0> d          30.750  69.580 -22.979  0.00  0.00    -0.051 A 
ATOM     19  C3  <0> d          31.565  68.693 -23.658  0.00  0.00     0.007 A 
ATOM     20  C2  <0> d          32.940  68.816 -23.575  0.00  0.00     0.001 A 
ATOM     21  C1  <0> d          33.498  69.824 -22.813  0.00  0.00     0.000 A 
ATOM     22  C6  <0> d          32.683  70.710 -22.134  0.00  0.00     0.001 A 
ATOM     23  C5  <0> d          31.310  70.592 -22.221  0.00  0.00     0.007 A 
ENDBRANCH  17  18
ENDBRANCH   1  17
TORSDOF 4
ENDMDL
MODEL 8
REMARK VINA RESULT:      -6.2      2.507      3.382
REMARK  4 active torsions:
REMARK  status: ('A' for Active; 'I' for Inactive)
REMARK    1  A    between atoms: C4_4  and  C7_7 
REMARK    2  A    between atoms: C7_7  and  C8_8 
REMARK    3  A    between atoms: N1_11  and  S1_12 
REMARK    4  A    between atoms: S1_12  and  C11_15 
ROOT
ATOM      1  C8  <0> d          28.212  69.909 -24.775  0.00  0.00     0.093 A 
ATOM      2  C9  <0> d          29.368  67.991 -24.468  0.00  0.00     0.142 A 
ATOM      3  C10 <0> d          29.135  68.180 -25.981  0.00  0.00     0.162 A 
ATOM      4  N1  <0> d          28.380  69.444 -26.046  0.00  0.00    -0.259 N 
ATOM      5  N2  <0> d          28.721  69.165 -23.859  0.00  0.00    -0.377 N 
ATOM      6  H16 <0> d          28.681  69.360 -22.852  0.00  0.00     0.160 HD
ENDROOT
BRANCH   4   7
ATOM      7  S1  <0> d          27.836  70.179 -27.427  0.00  0.00     0.266 S 
ATOM      8  O1  <0> d          28.172  69.318 -28.505  0.00  0.00    -0.200 OA
ATOM      9  O2  <0> d          28.272  71.530 -27.366  0.00  0.00    -0.200 OA
BRANCH   7  10
ATOM     10  C11 <0> d          26.076  70.213 -27.339  0.00  0.00     0.080 A 
ATOM     11  C16 <0> d          25.376  69.056 -27.051  0.00  0.00     0.026 A 
ATOM     12  C15 <0> d          23.996  69.082 -26.982  0.00  0.00     0.020 A 
ATOM     13  C14 <0> d          23.315  70.265 -27.201  0.00  0.00     0.006 A 
ATOM     14  C13 <0> d          24.015  71.423 -27.490  0.00  0.00     0.020 A 
ATOM     15  I1  <0> d          21.224  70.304 -27.098  0.00  0.00    -0.045 I 
ATOM     16  C12 <0> d          25.396  71.396 -27.558  0.00  0.00     0.026 A 
ENDBRANCH   7  10
ENDBRANCH   4   7
BRANCH   1  17
ATOM     17  C7  <0> d          27.485  71.192 -24.468  0.00  0.00     0.115 C 
BRANCH  17  18
ATOM     18  C4  <0> d          26.092  70.876 -23.987  0.00  0.00    -0.051 A 
ATOM     19  C3  <0> d          25.784  69.600 -23.552  0.00  0.00     0.007 A 
ATOM     20  C2  <0> d          24.506  69.311 -23.111  0.00  0.00     0.001 A 
ATOM     21  C1  <0> d          23.537  70.296 -23.105  0.00  0.00     0.000 A 
ATOM     22  C6  <0> d          23.845  71.571 -23.539  0.00  0.00     0.001 A 
ATOM     23  C5  <0> d          25.123  71.863 -23.975  0.00  0.00     0.007 A 
ENDBRANCH  17  18
ENDBRANCH   1  17
TORSDOF 4
ENDMDL
MODEL 9
REMARK VINA RESULT:      -6.2     20.519     21.976
REMARK  4 active torsions:
REMARK  status: ('A' for Active; 'I' for Inactive)
REMARK    1  A    between atoms: C4_4  and  C7_7 
REMARK    2  A    between atoms: C7_7  and  C8_8 
REMARK    3  A    between atoms: N1_11  and  S1_12 
REMARK    4  A    between atoms: S1_12  and  C11_15 
ROOT
ATOM      1  C8  <0> d          29.823  57.535  -7.507  0.00  0.00     0.093 A 
ATOM      2  C9  <0> d          32.077  57.442  -7.360  0.00  0.00     0.142 A 
ATOM      3  C10 <0> d          31.600  58.745  -6.687  0.00  0.00     0.162 A 
ATOM      4  N1  <0> d          30.137  58.688  -6.850  0.00  0.00    -0.259 N 
ATOM      5  N2  <0> d          30.832  56.805  -7.823  0.00  0.00    -0.377 N 
ATOM      6  H16 <0> d          30.778  55.911  -8.325  0.00  0.00     0.160 HD
ENDROOT
BRANCH   4   7
ATOM      7  S1  <0> d          29.057  59.827  -6.320  0.00  0.00     0.266 S 
ATOM      8  O1  <0> d          28.025  59.892  -7.293  0.00  0.00    -0.200 OA
ATOM      9  O2  <0> d          29.821  60.964  -5.941  0.00  0.00    -0.200 OA
BRANCH   7  10
ATOM     10  C11 <0> d          28.323  59.200  -4.846  0.00  0.00     0.080 A 
ATOM     11  C16 <0> d          29.053  58.382  -4.004  0.00  0.00     0.026 A 
ATOM     12  C15 <0> d          28.477  57.890  -2.848  0.00  0.00     0.020 A 
ATOM     13  C14 <0> d          27.171  58.215  -2.533  0.00  0.00     0.006 A 
ATOM     14  C13 <0> d          26.440  59.034  -3.376  0.00  0.00     0.020 A 
ATOM     15  I1  <0> d          26.297  57.469  -0.781  0.00  0.00    -0.045 I 
ATOM     16  C12 <0> d          27.017  59.526  -4.532  0.00  0.00     0.026 A 
ENDBRANCH   7  10
ENDBRANCH   4   7
BRANCH   1  17
ATOM     17  C7  <0> d          28.405  57.149  -7.839  0.00  0.00     0.115 C 
BRANCH  17  18
ATOM     18  C4  <0> d          27.845  56.294  -6.731  0.00  0.00    -0.051 A 
ATOM     19  C3  <0> d          28.643  55.343  -6.122  0.00  0.00     0.007 A 
ATOM     20  C2  <0> d          28.129  54.559  -5.106  0.00  0.00     0.001 A 
ATOM     21  C1  <0> d          26.819  54.725  -4.700  0.00  0.00     0.000 A 
ATOM     22  C6  <0> d          26.022  55.675  -5.309  0.00  0.00     0.001 A 
ATOM     23  C5  <0> d          26.536  56.463  -6.321  0.00  0.00     0.007 A 
ENDBRANCH  17  18
ENDBRANCH   1  17
TORSDOF 4
ENDMDL
MODEL 10
REMARK VINA RESULT:      -6.1      1.957      2.584
REMARK  4 active torsions:
REMARK  status: ('A' for Active; 'I' for Inactive)
REMARK    1  A    between atoms: C4_4  and  C7_7 
REMARK    2  A    between atoms: C7_7  and  C8_8 
REMARK    3  A    between atoms: N1_11  and  S1_12 
REMARK    4  A    between atoms: S1_12  and  C11_15 
ROOT
ATOM      1  C8  <0> d          29.817  69.977 -22.690  0.00  0.00     0.093 A 
ATOM      2  C9  <0> d          30.434  68.269 -24.037  0.00  0.00     0.142 A 
ATOM      3  C10 <0> d          29.264  69.018 -24.707  0.00  0.00     0.162 A 
ATOM      4  N1  <0> d          28.958  70.089 -23.743  0.00  0.00    -0.259 N 
ATOM      5  N2  <0> d          30.650  69.002 -22.777  0.00  0.00    -0.377 N 
ATOM      6  H16 <0> d          31.360  68.768 -22.074  0.00  0.00     0.160 HD
ENDROOT
BRANCH   4   7
ATOM      7  S1  <0> d          27.776  71.238 -23.911  0.00  0.00     0.266 S 
ATOM      8  O1  <0> d          27.392  71.227 -25.278  0.00  0.00    -0.200 OA
ATOM      9  O2  <0> d          28.254  72.409 -23.263  0.00  0.00    -0.200 OA
BRANCH   7  10
ATOM     10  C11 <0> d          26.379  70.686 -22.990  0.00  0.00     0.080 A 
ATOM     11  C16 <0> d          26.052  71.302 -21.796  0.00  0.00     0.026 A 
ATOM     12  C15 <0> d          24.956  70.870 -21.073  0.00  0.00     0.020 A 
ATOM     13  C14 <0> d          24.187  69.821 -21.543  0.00  0.00     0.006 A 
ATOM     14  C13 <0> d          24.516  69.204 -22.737  0.00  0.00     0.020 A 
ATOM     15  I1  <0> d          22.528  69.165 -20.447  0.00  0.00    -0.045 I 
ATOM     16  C12 <0> d          25.611  69.638 -23.460  0.00  0.00     0.026 A 
ENDBRANCH   7  10
ENDBRANCH   4   7
BRANCH   1  17
ATOM     17  C7  <0> d          29.791  70.919 -21.514  0.00  0.00     0.115 C 
BRANCH  17  18
ATOM     18  C4  <0> d          29.662  70.127 -20.239  0.00  0.00    -0.051 A 
ATOM     19  C3  <0> d          30.716  70.080 -19.345  0.00  0.00     0.007 A 
ATOM     20  C2  <0> d          30.596  69.353 -18.175  0.00  0.00     0.001 A 
ATOM     21  C1  <0> d          29.425  68.673 -17.899  0.00  0.00     0.000 A 
ATOM     22  C6  <0> d          28.372  68.720 -18.793  0.00  0.00     0.001 A 
ATOM     23  C5  <0> d          28.488  69.450 -19.960  0.00  0.00     0.007 A 
ENDBRANCH  17  18
ENDBRANCH   1  17
TORSDOF 4
ENDMDL
