MODEL 1
REMARK VINA RESULT:      -7.3      0.000      0.000
REMARK  3 active torsions:
REMARK  status: ('A' for Active; 'I' for Inactive)
REMARK    1  A    between atoms: C5_5  and  C7_7 
REMARK    2  A    between atoms: C7_7  and  N1_8 
REMARK    3  A    between atoms: C10_12  and  C11_13 
ROOT
ATOM      1  N1  <0> d          28.749  69.345 -25.962  0.00  0.00    -0.260 N 
ATOM      2  C8  <0> d          29.138  69.677 -24.714  0.00  0.00     0.278 A 
ATOM      3  O1  <0> d          28.826  70.676 -24.093  0.00  0.00    -0.265 OA
ATOM      4  C9  <0> d          30.015  68.588 -24.255  0.00  0.00     0.106 A 
ATOM      5  C10 <0> d          30.644  68.485 -23.058  0.00  0.00     0.046 C 
ATOM      6  N2  <0> d          30.067  67.683 -25.323  0.00  0.00    -0.304 N 
ATOM      7  C17 <0> d          29.296  68.171 -26.311  0.00  0.00     0.330 A 
ATOM      8  O2  <0> d          29.122  67.622 -27.383  0.00  0.00    -0.246 OA
ATOM      9  H12 <0> d          30.566  66.851 -25.345  0.00  0.00     0.171 HD
ENDROOT
BRANCH   1  10
ATOM     10  C7  <0> d          27.862  70.147 -26.809  0.00  0.00     0.178 C 
BRANCH  10  11
ATOM     11  C5  <0> d          26.450  69.637 -26.682  0.00  0.00    -0.001 A 
ATOM     12  C4  <0> d          25.845  69.000 -27.752  0.00  0.00     0.124 A 
ATOM     13  C3  <0> d          24.548  68.531 -27.633  0.00  0.00     0.043 A 
ATOM     14  F1  <0> d          26.520  68.835 -28.911  0.00  0.00    -0.205 F 
ATOM     15  C2  <0> d          23.858  68.699 -26.447  0.00  0.00     0.003 A 
ATOM     16  C1  <0> d          24.464  69.336 -25.379  0.00  0.00     0.001 A 
ATOM     17  C6  <0> d          25.761  69.799 -25.495  0.00  0.00     0.012 A 
ENDBRANCH  10  11
ENDBRANCH   1  10
BRANCH   5  18
ATOM     18  C11 <0> d          30.621  69.613 -22.117  0.00  0.00    -0.034 A 
ATOM     19  C16 <0> d          31.580  70.627 -22.211  0.00  0.00     0.012 A 
ATOM     20  C15 <0> d          31.551  71.682 -21.323  0.00  0.00     0.019 A 
ATOM     21  C14 <0> d          30.577  71.740 -20.341  0.00  0.00     0.006 A 
ATOM     22  C13 <0> d          29.625  70.740 -20.242  0.00  0.00     0.019 A 
ATOM     23  I1  <0> d          30.539  73.352 -19.004  0.00  0.00    -0.045 I 
ATOM     24  C12 <0> d          29.639  69.678 -21.121  0.00  0.00     0.012 A 
ENDBRANCH   5  18
TORSDOF 3
ENDMDL
MODEL 2
REMARK VINA RESULT:      -7.3      3.234      6.875
REMARK  3 active torsions:
REMARK  status: ('A' for Active; 'I' for Inactive)
REMARK    1  A    between atoms: C5_5  and  C7_7 
REMARK    2  A    between atoms: C7_7  and  N1_8 
REMARK    3  A    between atoms: C10_12  and  C11_13 
ROOT
ATOM      1  N1  <0> d          30.282  69.096 -23.231  0.00  0.00    -0.260 N 
ATOM      2  C8  <0> d          29.336  69.614 -24.040  0.00  0.00     0.278 A 
ATOM      3  O1  <0> d          28.614  70.565 -23.804  0.00  0.00    -0.265 OA
ATOM      4  C9  <0> d          29.352  68.798 -25.265  0.00  0.00     0.106 A 
ATOM      5  C10 <0> d          28.571  68.945 -26.363  0.00  0.00     0.046 C 
ATOM      6  N2  <0> d          30.344  67.833 -25.050  0.00  0.00    -0.304 N 
ATOM      7  C17 <0> d          30.872  68.052 -23.832  0.00  0.00     0.330 A 
ATOM      8  O2  <0> d          31.764  67.387 -23.339  0.00  0.00    -0.246 OA
ATOM      9  H12 <0> d          30.605  67.133 -25.669  0.00  0.00     0.171 HD
ENDROOT
BRANCH   1  10
ATOM     10  C7  <0> d          30.615  69.597 -21.895  0.00  0.00     0.178 C 
BRANCH  10  11
ATOM     11  C5  <0> d          31.632  70.703 -22.013  0.00  0.00    -0.001 A 
ATOM     12  C4  <0> d          31.260  72.014 -21.773  0.00  0.00     0.124 A 
ATOM     13  C3  <0> d          32.196  73.029 -21.881  0.00  0.00     0.043 A 
ATOM     14  F1  <0> d          29.985  72.304 -21.432  0.00  0.00    -0.205 F 
ATOM     15  C2  <0> d          33.500  72.731 -22.228  0.00  0.00     0.003 A 
ATOM     16  C1  <0> d          33.870  71.420 -22.469  0.00  0.00     0.001 A 
ATOM     17  C6  <0> d          32.939  70.406 -22.356  0.00  0.00     0.012 A 
ENDBRANCH  10  11
ENDBRANCH   1  10
BRANCH   5  18
ATOM     18  C11 <0> d          27.459  69.905 -26.350  0.00  0.00    -0.034 A 
ATOM     19  C16 <0> d          26.229  69.549 -25.787  0.00  0.00     0.012 A 
ATOM     20  C15 <0> d          25.190  70.456 -25.780  0.00  0.00     0.019 A 
ATOM     21  C14 <0> d          25.361  71.715 -26.328  0.00  0.00     0.006 A 
ATOM     22  C13 <0> d          26.575  72.075 -26.888  0.00  0.00     0.019 A 
ATOM     23  I1  <0> d          23.778  73.087 -26.304  0.00  0.00    -0.045 I 
ATOM     24  C12 <0> d          27.624  71.181 -26.903  0.00  0.00     0.012 A 
ENDBRANCH   5  18
TORSDOF 3
ENDMDL
MODEL 3
REMARK VINA RESULT:      -7.1      3.093      6.577
REMARK  3 active torsions:
REMARK  status: ('A' for Active; 'I' for Inactive)
REMARK    1  A    between atoms: C5_5  and  C7_7 
REMARK    2  A    between atoms: C7_7  and  N1_8 
REMARK    3  A    between atoms: C10_12  and  C11_13 
ROOT
ATOM      1  N1  <0> d          29.568  68.060 -24.732  0.00  0.00    -0.260 N 
ATOM      2  C8  <0> d          28.696  68.936 -25.273  0.00  0.00     0.278 A 
ATOM      3  O1  <0> d          28.115  69.837 -24.699  0.00  0.00    -0.265 OA
ATOM      4  C9  <0> d          28.591  68.580 -26.697  0.00  0.00     0.106 A 
ATOM      5  C10 <0> d          27.829  69.184 -27.643  0.00  0.00     0.046 C 
ATOM      6  N2  <0> d          29.440  67.480 -26.866  0.00  0.00    -0.304 N 
ATOM      7  C17 <0> d          30.003  67.210 -25.674  0.00  0.00     0.330 A 
ATOM      8  O2  <0> d          30.798  66.311 -25.476  0.00  0.00    -0.246 OA
ATOM      9  H12 <0> d          29.598  67.000 -27.694  0.00  0.00     0.171 HD
ENDROOT
BRANCH   1  10
ATOM     10  C7  <0> d          29.977  68.040 -23.325  0.00  0.00     0.178 C 
BRANCH  10  11
ATOM     11  C5  <0> d          31.172  68.938 -23.137  0.00  0.00    -0.001 A 
ATOM     12  C4  <0> d          31.086  70.038 -22.301  0.00  0.00     0.124 A 
ATOM     13  C3  <0> d          32.185  70.863 -22.128  0.00  0.00     0.043 A 
ATOM     14  F1  <0> d          29.931  70.307 -21.653  0.00  0.00    -0.205 F 
ATOM     15  C2  <0> d          33.366  70.587 -22.791  0.00  0.00     0.003 A 
ATOM     16  C1  <0> d          33.450  69.488 -23.626  0.00  0.00     0.001 A 
ATOM     17  C6  <0> d          32.356  68.661 -23.794  0.00  0.00     0.012 A 
ENDBRANCH  10  11
ENDBRANCH   1  10
BRANCH   5  18
ATOM     18  C11 <0> d          26.860  70.219 -27.255  0.00  0.00    -0.034 A 
ATOM     19  C16 <0> d          27.214  71.571 -27.316  0.00  0.00     0.012 A 
ATOM     20  C15 <0> d          26.299  72.536 -26.950  0.00  0.00     0.019 A 
ATOM     21  C14 <0> d          25.035  72.171 -26.521  0.00  0.00     0.006 A 
ATOM     22  C13 <0> d          24.678  70.834 -26.457  0.00  0.00     0.019 A 
ATOM     23  I1  <0> d          23.652  73.646 -25.975  0.00  0.00    -0.045 I 
ATOM     24  C12 <0> d          25.580  69.857 -26.819  0.00  0.00     0.012 A 
ENDBRANCH   5  18
TORSDOF 3
ENDMDL
MODEL 4
REMARK VINA RESULT:      -7.1      4.133      6.062
REMARK  3 active torsions:
REMARK  status: ('A' for Active; 'I' for Inactive)
REMARK    1  A    between atoms: C5_5  and  C7_7 
REMARK    2  A    between atoms: C7_7  and  N1_8 
REMARK    3  A    between atoms: C10_12  and  C11_13 
ROOT
ATOM      1  N1  <0> d          29.924  69.883 -21.476  0.00  0.00    -0.260 N 
ATOM      2  C8  <0> d          28.783  69.501 -20.866  0.00  0.00     0.278 A 
ATOM      3  O1  <0> d          27.685  69.384 -21.377  0.00  0.00    -0.265 OA
ATOM      4  C9  <0> d          29.135  69.256 -19.458  0.00  0.00     0.106 A 
ATOM      5  C10 <0> d          28.309  68.853 -18.461  0.00  0.00     0.046 C 
ATOM      6  N2  <0> d          30.505  69.533 -19.367  0.00  0.00    -0.304 N 
ATOM      7  C17 <0> d          30.931  69.896 -20.590  0.00  0.00     0.330 A 
ATOM      8  O2  <0> d          32.078  70.201 -20.857  0.00  0.00    -0.246 OA
ATOM      9  H12 <0> d          31.050  69.472 -18.567  0.00  0.00     0.171 HD
ENDROOT
BRANCH   1  10
ATOM     10  C7  <0> d          30.045  70.231 -22.894  0.00  0.00     0.178 C 
BRANCH  10  11
ATOM     11  C5  <0> d          30.362  68.992 -23.691  0.00  0.00    -0.001 A 
ATOM     12  C4  <0> d          29.366  68.359 -24.413  0.00  0.00     0.124 A 
ATOM     13  C3  <0> d          29.659  67.221 -25.145  0.00  0.00     0.043 A 
ATOM     14  F1  <0> d          28.107  68.852 -24.406  0.00  0.00    -0.205 F 
ATOM     15  C2  <0> d          30.946  66.718 -25.153  0.00  0.00     0.003 A 
ATOM     16  C1  <0> d          31.941  67.351 -24.430  0.00  0.00     0.001 A 
ATOM     17  C6  <0> d          31.650  68.490 -23.704  0.00  0.00     0.012 A 
ENDBRANCH  10  11
ENDBRANCH   1  10
BRANCH   5  18
ATOM     18  C11 <0> d          26.860  68.776 -18.693  0.00  0.00    -0.034 A 
ATOM     19  C16 <0> d          26.056  69.905 -18.501  0.00  0.00     0.012 A 
ATOM     20  C15 <0> d          24.697  69.824 -18.721  0.00  0.00     0.019 A 
ATOM     21  C14 <0> d          24.127  68.631 -19.130  0.00  0.00     0.006 A 
ATOM     22  C13 <0> d          24.917  67.509 -19.322  0.00  0.00     0.019 A 
ATOM     23  I1  <0> d          22.063  68.522 -19.468  0.00  0.00    -0.045 I 
ATOM     24  C12 <0> d          26.277  67.572 -19.107  0.00  0.00     0.012 A 
ENDBRANCH   5  18
TORSDOF 3
ENDMDL
MODEL 5
REMARK VINA RESULT:      -6.9      3.642      6.690
REMARK  3 active torsions:
REMARK  status: ('A' for Active; 'I' for Inactive)
REMARK    1  A    between atoms: C5_5  and  C7_7 
REMARK    2  A    between atoms: C7_7  and  N1_8 
REMARK    3  A    between atoms: C10_12  and  C11_13 
ROOT
ATOM      1  N1  <0> d          29.913  69.676 -23.198  0.00  0.00    -0.260 N 
ATOM      2  C8  <0> d          29.017  69.964 -24.164  0.00  0.00     0.278 A 
ATOM      3  O1  <0> d          28.210  70.875 -24.163  0.00  0.00    -0.265 OA
ATOM      4  C9  <0> d          29.212  68.955 -25.217  0.00  0.00     0.106 A 
ATOM      5  C10 <0> d          28.534  68.844 -26.387  0.00  0.00     0.046 C 
ATOM      6  N2  <0> d          30.243  68.131 -24.751  0.00  0.00    -0.304 N 
ATOM      7  C17 <0> d          30.631  68.600 -23.551  0.00  0.00     0.330 A 
ATOM      8  O2  <0> d          31.515  68.109 -22.874  0.00  0.00    -0.246 OA
ATOM      9  H12 <0> d          30.613  67.361 -25.210  0.00  0.00     0.171 HD
ENDROOT
BRANCH   1  10
ATOM     10  C7  <0> d          30.077  70.426 -21.950  0.00  0.00     0.178 C 
BRANCH  10  11
ATOM     11  C5  <0> d          29.326  69.731 -20.844  0.00  0.00    -0.001 A 
ATOM     12  C4  <0> d          29.948  69.487 -19.632  0.00  0.00     0.124 A 
ATOM     13  C3  <0> d          29.257  68.848 -18.616  0.00  0.00     0.043 A 
ATOM     14  F1  <0> d          31.229  69.872 -19.439  0.00  0.00    -0.205 F 
ATOM     15  C2  <0> d          27.946  68.456 -18.813  0.00  0.00     0.003 A 
ATOM     16  C1  <0> d          27.326  68.700 -20.026  0.00  0.00     0.001 A 
ATOM     17  C6  <0> d          28.013  69.342 -21.038  0.00  0.00     0.012 A 
ENDBRANCH  10  11
ENDBRANCH   1  10
BRANCH   5  18
ATOM     18  C11 <0> d          27.361  69.692 -26.639  0.00  0.00    -0.034 A 
ATOM     19  C16 <0> d          26.112  69.337 -26.119  0.00  0.00     0.012 A 
ATOM     20  C15 <0> d          25.016  70.138 -26.362  0.00  0.00     0.019 A 
ATOM     21  C14 <0> d          25.148  71.290 -27.118  0.00  0.00     0.006 A 
ATOM     22  C13 <0> d          26.382  71.647 -27.637  0.00  0.00     0.019 A 
ATOM     23  I1  <0> d          23.478  72.502 -27.473  0.00  0.00    -0.045 I 
ATOM     24  C12 <0> d          27.487  70.858 -27.404  0.00  0.00     0.012 A 
ENDBRANCH   5  18
TORSDOF 3
ENDMDL
MODEL 6
REMARK VINA RESULT:      -6.8      1.509      2.156
REMARK  3 active torsions:
REMARK  status: ('A' for Active; 'I' for Inactive)
REMARK    1  A    between atoms: C5_5  and  C7_7 
REMARK    2  A    between atoms: C7_7  and  N1_8 
REMARK    3  A    between atoms: C10_12  and  C11_13 
ROOT
ATOM      1  N1  <0> d          28.299  69.111 -24.460  0.00  0.00    -0.260 N 
ATOM      2  C8  <0> d          28.934  69.585 -23.368  0.00  0.00     0.278 A 
ATOM      3  O1  <0> d          28.442  70.226 -22.458  0.00  0.00    -0.265 OA
ATOM      4  C9  <0> d          30.339  69.170 -23.501  0.00  0.00     0.106 A 
ATOM      5  C10 <0> d          31.357  69.420 -22.640  0.00  0.00     0.046 C 
ATOM      6  N2  <0> d          30.403  68.467 -24.711  0.00  0.00    -0.304 N 
ATOM      7  C17 <0> d          29.167  68.453 -25.242  0.00  0.00     0.330 A 
ATOM      8  O2  <0> d          28.877  67.919 -26.296  0.00  0.00    -0.246 OA
ATOM      9  H12 <0> d          31.195  68.061 -25.096  0.00  0.00     0.171 HD
ENDROOT
BRANCH   1  10
ATOM     10  C7  <0> d          26.873  69.289 -24.748  0.00  0.00     0.178 C 
BRANCH  10  11
ATOM     11  C5  <0> d          26.700  70.376 -25.777  0.00  0.00    -0.001 A 
ATOM     12  C4  <0> d          26.265  70.059 -27.052  0.00  0.00     0.124 A 
ATOM     13  C3  <0> d          26.106  71.059 -27.997  0.00  0.00     0.043 A 
ATOM     14  F1  <0> d          25.993  68.775 -27.375  0.00  0.00    -0.205 F 
ATOM     15  C2  <0> d          26.382  72.372 -27.666  0.00  0.00     0.003 A 
ATOM     16  C1  <0> d          26.818  72.687 -26.391  0.00  0.00     0.001 A 
ATOM     17  C6  <0> d          26.971  71.691 -25.446  0.00  0.00     0.012 A 
ENDBRANCH  10  11
ENDBRANCH   1  10
BRANCH   5  18
ATOM     18  C11 <0> d          31.149  70.325 -21.501  0.00  0.00    -0.034 A 
ATOM     19  C16 <0> d          30.798  69.809 -20.249  0.00  0.00     0.012 A 
ATOM     20  C15 <0> d          30.604  70.665 -19.185  0.00  0.00     0.019 A 
ATOM     21  C14 <0> d          30.756  72.031 -19.353  0.00  0.00     0.006 A 
ATOM     22  C13 <0> d          31.103  72.548 -20.590  0.00  0.00     0.019 A 
ATOM     23  I1  <0> d          30.467  73.320 -17.728  0.00  0.00    -0.045 I 
ATOM     24  C12 <0> d          31.300  71.707 -21.663  0.00  0.00     0.012 A 
ENDBRANCH   5  18
TORSDOF 3
ENDMDL
MODEL 7
REMARK VINA RESULT:      -6.6      2.153      2.712
REMARK  3 active torsions:
REMARK  status: ('A' for Active; 'I' for Inactive)
REMARK    1  A    between atoms: C5_5  and  C7_7 
REMARK    2  A    between atoms: C7_7  and  N1_8 
REMARK    3  A    between atoms: C10_12  and  C11_13 
ROOT
ATOM      1  N1  <0> d          27.571  70.163 -27.473  0.00  0.00    -0.260 N 
ATOM      2  C8  <0> d          28.034  69.979 -26.220  0.00  0.00     0.278 A 
ATOM      3  O1  <0> d          27.994  70.776 -25.302  0.00  0.00    -0.265 OA
ATOM      4  C9  <0> d          28.599  68.620 -26.188  0.00  0.00     0.106 A 
ATOM      5  C10 <0> d          29.182  67.995 -25.135  0.00  0.00     0.046 C 
ATOM      6  N2  <0> d          28.412  68.113 -27.480  0.00  0.00    -0.304 N 
ATOM      7  C17 <0> d          27.793  69.062 -28.206  0.00  0.00     0.330 A 
ATOM      8  O2  <0> d          27.481  68.938 -29.376  0.00  0.00    -0.246 OA
ATOM      9  H12 <0> d          28.678  67.235 -27.795  0.00  0.00     0.171 HD
ENDROOT
BRANCH   1  10
ATOM     10  C7  <0> d          26.921  71.383 -27.960  0.00  0.00     0.178 C 
BRANCH  10  11
ATOM     11  C5  <0> d          25.452  71.336 -27.629  0.00  0.00    -0.001 A 
ATOM     12  C4  <0> d          24.952  72.105 -26.592  0.00  0.00     0.124 A 
ATOM     13  C3  <0> d          23.602  72.062 -26.288  0.00  0.00     0.043 A 
ATOM     14  F1  <0> d          25.780  72.896 -25.876  0.00  0.00    -0.205 F 
ATOM     15  C2  <0> d          22.755  71.252 -27.022  0.00  0.00     0.003 A 
ATOM     16  C1  <0> d          23.256  70.485 -28.058  0.00  0.00     0.001 A 
ATOM     17  C6  <0> d          24.603  70.531 -28.365  0.00  0.00     0.012 A 
ENDBRANCH  10  11
ENDBRANCH   1  10
BRANCH   5  18
ATOM     18  C11 <0> d          29.453  68.739 -23.897  0.00  0.00    -0.034 A 
ATOM     19  C16 <0> d          30.723  69.280 -23.667  0.00  0.00     0.012 A 
ATOM     20  C15 <0> d          30.970  69.976 -22.502  0.00  0.00     0.019 A 
ATOM     21  C14 <0> d          29.967  70.140 -21.563  0.00  0.00     0.006 A 
ATOM     22  C13 <0> d          28.707  69.608 -21.784  0.00  0.00     0.019 A 
ATOM     23  I1  <0> d          30.352  71.207 -19.802  0.00  0.00    -0.045 I 
ATOM     24  C12 <0> d          28.444  68.909 -22.943  0.00  0.00     0.012 A 
ENDBRANCH   5  18
TORSDOF 3
ENDMDL
MODEL 8
REMARK VINA RESULT:      -6.6     21.988     24.986
REMARK  3 active torsions:
REMARK  status: ('A' for Active; 'I' for Inactive)
REMARK    1  A    between atoms: C5_5  and  C7_7 
REMARK    2  A    between atoms: C7_7  and  N1_8 
REMARK    3  A    between atoms: C10_12  and  C11_13 
ROOT
ATOM      1  N1  <0> d          10.957  52.140 -26.467  0.00  0.00    -0.260 N 
ATOM      2  C8  <0> d          11.322  53.011 -27.429  0.00  0.00     0.278 A 
ATOM      3  O1  <0> d          12.450  53.220 -27.836  0.00  0.00    -0.265 OA
ATOM      4  C9  <0> d          10.082  53.658 -27.887  0.00  0.00     0.106 A 
ATOM      5  C10 <0> d           9.955  54.609 -28.847  0.00  0.00     0.046 C 
ATOM      6  N2  <0> d           9.063  53.087 -27.116  0.00  0.00    -0.304 N 
ATOM      7  C17 <0> d           9.628  52.188 -26.291  0.00  0.00     0.330 A 
ATOM      8  O2  <0> d           9.015  51.511 -25.488  0.00  0.00    -0.246 OA
ATOM      9  H12 <0> d           8.117  53.300 -27.169  0.00  0.00     0.171 HD
ENDROOT
BRANCH   1  10
ATOM     10  C7  <0> d          11.874  51.271 -25.725  0.00  0.00     0.178 C 
BRANCH  10  11
ATOM     11  C5  <0> d          12.008  49.953 -26.442  0.00  0.00    -0.001 A 
ATOM     12  C4  <0> d          11.376  48.827 -25.944  0.00  0.00     0.124 A 
ATOM     13  C3  <0> d          11.499  47.616 -26.605  0.00  0.00     0.043 A 
ATOM     14  F1  <0> d          10.638  48.908 -24.815  0.00  0.00    -0.205 F 
ATOM     15  C2  <0> d          12.252  47.533 -27.761  0.00  0.00     0.003 A 
ATOM     16  C1  <0> d          12.884  48.659 -28.257  0.00  0.00     0.001 A 
ATOM     17  C6  <0> d          12.757  49.869 -27.601  0.00  0.00     0.012 A 
ENDBRANCH  10  11
ENDBRANCH   1  10
BRANCH   5  18
ATOM     18  C11 <0> d          11.153  55.222 -29.436  0.00  0.00    -0.034 A 
ATOM     19  C16 <0> d          11.696  54.709 -30.619  0.00  0.00     0.012 A 
ATOM     20  C15 <0> d          12.821  55.290 -31.166  0.00  0.00     0.019 A 
ATOM     21  C14 <0> d          13.413  56.378 -30.548  0.00  0.00     0.006 A 
ATOM     22  C13 <0> d          12.881  56.891 -29.376  0.00  0.00     0.019 A 
ATOM     23  I1  <0> d          15.117  57.257 -31.392  0.00  0.00    -0.045 I 
ATOM     24  C12 <0> d          11.758  56.322 -28.817  0.00  0.00     0.012 A 
ENDBRANCH   5  18
TORSDOF 3
ENDMDL
MODEL 9
REMARK VINA RESULT:      -6.6      4.105      7.117
REMARK  3 active torsions:
REMARK  status: ('A' for Active; 'I' for Inactive)
REMARK    1  A    between atoms: C5_5  and  C7_7 
REMARK    2  A    between atoms: C7_7  and  N1_8 
REMARK    3  A    between atoms: C10_12  and  C11_13 
ROOT
ATOM      1  N1  <0> d          27.481  70.071 -24.595  0.00  0.00    -0.260 N 
ATOM      2  C8  <0> d          26.480  70.088 -25.500  0.00  0.00     0.278 A 
ATOM      3  O1  <0> d          25.417  70.672 -25.402  0.00  0.00    -0.265 OA
ATOM      4  C9  <0> d          26.935  69.258 -26.627  0.00  0.00     0.106 A 
ATOM      5  C10 <0> d          26.260  68.983 -27.772  0.00  0.00     0.046 C 
ATOM      6  N2  <0> d          28.210  68.809 -26.263  0.00  0.00    -0.304 N 
ATOM      7  C17 <0> d          28.494  69.320 -25.052  0.00  0.00     0.330 A 
ATOM      8  O2  <0> d          29.532  69.124 -24.448  0.00  0.00    -0.246 OA
ATOM      9  H12 <0> d          28.786  68.233 -26.790  0.00  0.00     0.171 HD
ENDROOT
BRANCH   1  10
ATOM     10  C7  <0> d          27.463  70.769 -23.307  0.00  0.00     0.178 C 
BRANCH  10  11
ATOM     11  C5  <0> d          26.834  69.881 -22.264  0.00  0.00    -0.001 A 
ATOM     12  C4  <0> d          27.635  69.151 -21.403  0.00  0.00     0.124 A 
ATOM     13  C3  <0> d          27.056  68.336 -20.444  0.00  0.00     0.043 A 
ATOM     14  F1  <0> d          28.980  69.233 -21.496  0.00  0.00    -0.205 F 
ATOM     15  C2  <0> d          25.679  68.254 -20.349  0.00  0.00     0.003 A 
ATOM     16  C1  <0> d          24.881  68.984 -21.210  0.00  0.00     0.001 A 
ATOM     17  C6  <0> d          25.458  69.802 -22.163  0.00  0.00     0.012 A 
ENDBRANCH  10  11
ENDBRANCH   1  10
BRANCH   5  18
ATOM     18  C11 <0> d          24.858  69.397 -27.915  0.00  0.00    -0.034 A 
ATOM     19  C16 <0> d          24.542  70.604 -28.547  0.00  0.00     0.012 A 
ATOM     20  C15 <0> d          23.223  70.985 -28.677  0.00  0.00     0.019 A 
ATOM     21  C14 <0> d          22.212  70.177 -28.184  0.00  0.00     0.006 A 
ATOM     22  C13 <0> d          22.518  68.981 -27.557  0.00  0.00     0.019 A 
ATOM     23  I1  <0> d          20.213  70.763 -28.395  0.00  0.00    -0.045 I 
ATOM     24  C12 <0> d          23.831  68.585 -27.419  0.00  0.00     0.012 A 
ENDBRANCH   5  18
TORSDOF 3
ENDMDL
MODEL 10
REMARK VINA RESULT:      -6.5      3.895      6.955
REMARK  3 active torsions:
REMARK  status: ('A' for Active; 'I' for Inactive)
REMARK    1  A    between atoms: C5_5  and  C7_7 
REMARK    2  A    between atoms: C7_7  and  N1_8 
REMARK    3  A    between atoms: C10_12  and  C11_13 
ROOT
ATOM      1  N1  <0> d          28.287  69.799 -22.513  0.00  0.00    -0.260 N 
ATOM      2  C8  <0> d          27.208  69.942 -23.308  0.00  0.00     0.278 A 
ATOM      3  O1  <0> d          27.175  70.459 -24.410  0.00  0.00    -0.265 OA
ATOM      4  C9  <0> d          26.078  69.348 -22.575  0.00  0.00     0.106 A 
ATOM      5  C10 <0> d          24.787  69.261 -22.981  0.00  0.00     0.046 C 
ATOM      6  N2  <0> d          26.621  68.898 -21.366  0.00  0.00    -0.304 N 
ATOM      7  C17 <0> d          27.936  69.182 -21.375  0.00  0.00     0.330 A 
ATOM      8  O2  <0> d          28.703  68.918 -20.469  0.00  0.00    -0.246 OA
ATOM      9  H12 <0> d          26.136  68.457 -20.650  0.00  0.00     0.171 HD
ENDROOT
BRANCH   1  10
ATOM     10  C7  <0> d          29.642  70.250 -22.843  0.00  0.00     0.178 C 
BRANCH  10  11
ATOM     11  C5  <0> d          30.417  69.109 -23.450  0.00  0.00    -0.001 A 
ATOM     12  C4  <0> d          31.685  68.809 -22.984  0.00  0.00     0.124 A 
ATOM     13  C3  <0> d          32.397  67.760 -23.542  0.00  0.00     0.043 A 
ATOM     14  F1  <0> d          32.229  69.537 -21.984  0.00  0.00    -0.205 F 
ATOM     15  C2  <0> d          31.839  67.015 -24.564  0.00  0.00     0.003 A 
ATOM     16  C1  <0> d          30.572  67.317 -25.029  0.00  0.00     0.001 A 
ATOM     17  C6  <0> d          29.860  68.360 -24.469  0.00  0.00     0.012 A 
ENDBRANCH  10  11
ENDBRANCH   1  10
BRANCH   5  18
ATOM     18  C11 <0> d          24.356  69.944 -24.209  0.00  0.00    -0.034 A 
ATOM     19  C16 <0> d          24.374  69.266 -25.433  0.00  0.00     0.012 A 
ATOM     20  C15 <0> d          23.968  69.914 -26.581  0.00  0.00     0.019 A 
ATOM     21  C14 <0> d          23.545  71.231 -26.525  0.00  0.00     0.006 A 
ATOM     22  C13 <0> d          23.525  71.908 -25.317  0.00  0.00     0.019 A 
ATOM     23  I1  <0> d          22.923  72.201 -28.274  0.00  0.00    -0.045 I 
ATOM     24  C12 <0> d          23.927  71.275 -24.161  0.00  0.00     0.012 A 
ENDBRANCH   5  18
TORSDOF 3
ENDMDL
