MODEL 1
REMARK VINA RESULT:      -6.7      0.000      0.000
REMARK  5 active torsions:
REMARK  status: ('A' for Active; 'I' for Inactive)
REMARK    1  A    between atoms: C2_2  and  N1_3 
REMARK    2  A    between atoms: C5_7  and  C6_8 
REMARK    3  A    between atoms: C8_10  and  O3_17 
REMARK    4  A    between atoms: C9_11  and  O2_16 
REMARK    5  A    between atoms: O3_17  and  C12_18 
ROOT
ATOM      1  C6  <0> d          28.953  70.036 -23.405  0.00  0.00    -0.013 A 
ATOM      2  C7  <0> d          28.005  69.869 -24.422  0.00  0.00     0.052 A 
ATOM      3  C8  <0> d          28.238  68.961 -25.436  0.00  0.00     0.104 A 
ATOM      4  C9  <0> d          29.413  68.209 -25.444  0.00  0.00     0.118 A 
ATOM      5  C10 <0> d          30.358  68.378 -24.440  0.00  0.00     0.065 A 
ATOM      6  C11 <0> d          30.133  69.282 -23.423  0.00  0.00     0.041 A 
ATOM      7 Br1  <0> d          31.418  69.504 -22.053  0.00  0.00    -0.049 Br
ATOM      8 Br2  <0> d          31.951  67.360 -24.463  0.00  0.00    -0.047 Br
ENDROOT
BRANCH   1   9
ATOM      9  C5  <0> d          28.710  70.999 -22.324  0.00  0.00     0.037 C 
ATOM     10  C4  <0> d          28.222  70.570 -21.131  0.00  0.00     0.079 A 
ATOM     11  C3  <0> d          27.721  69.238 -20.743  0.00  0.00     0.268 A 
ATOM     12  S1  <0> d          28.003  71.469 -19.601  0.00  0.00    -0.023 SA
ATOM     13  N1  <0> d          27.303  69.101 -19.496  0.00  0.00    -0.275 N 
ATOM     14  O1  <0> d          27.695  68.310 -21.531  0.00  0.00    -0.266 OA
ATOM     15  C14 <0> d          27.327  70.133 -18.628  0.00  0.00     0.293 A 
ATOM     16  O4  <0> d          26.973  70.149 -17.465  0.00  0.00    -0.259 OA
BRANCH  13  17
ATOM     17  C2  <0> d          26.799  67.800 -19.049  0.00  0.00     0.132 C 
ATOM     18  C1  <0> d          25.291  67.725 -19.298  0.00  0.00     0.027 C 
ENDBRANCH  13  17
ENDBRANCH   1   9
BRANCH   3  19
ATOM     19  O3  <0> d          27.320  68.796 -26.426  0.00  0.00    -0.349 OA
BRANCH  19  20
ATOM     20  C12 <0> d          27.380  69.707 -27.525  0.00  0.00     0.171 C 
ATOM     21  C13 <0> d          27.468  68.921 -28.834  0.00  0.00     0.034 C 
ENDBRANCH  19  20
ENDBRANCH   3  19
BRANCH   4  22
ATOM     22  O2  <0> d          29.637  67.313 -26.440  0.00  0.00    -0.357 OA
ATOM     23  H8  <0> d          30.275  67.612 -27.103  0.00  0.00     0.218 HD
ENDBRANCH   4  22
TORSDOF 5
ENDMDL
MODEL 2
REMARK VINA RESULT:      -6.4      3.310      6.698
REMARK  5 active torsions:
REMARK  status: ('A' for Active; 'I' for Inactive)
REMARK    1  A    between atoms: C2_2  and  N1_3 
REMARK    2  A    between atoms: C5_7  and  C6_8 
REMARK    3  A    between atoms: C8_10  and  O3_17 
REMARK    4  A    between atoms: C9_11  and  O2_16 
REMARK    5  A    between atoms: O3_17  and  C12_18 
ROOT
ATOM      1  C6  <0> d          31.119  69.827 -22.016  0.00  0.00    -0.013 A 
ATOM      2  C7  <0> d          30.040  70.110 -21.169  0.00  0.00     0.052 A 
ATOM      3  C8  <0> d          29.949  71.347 -20.563  0.00  0.00     0.104 A 
ATOM      4  C9  <0> d          30.926  72.314 -20.797  0.00  0.00     0.118 A 
ATOM      5  C10 <0> d          32.001  72.034 -21.632  0.00  0.00     0.065 A 
ATOM      6  C11 <0> d          32.100  70.801 -22.242  0.00  0.00     0.041 A 
ATOM      7 Br1  <0> d          33.560  70.425 -23.384  0.00  0.00    -0.049 Br
ATOM      8 Br2  <0> d          33.325  73.348 -21.938  0.00  0.00    -0.047 Br
ENDROOT
BRANCH   1   9
ATOM      9  C5  <0> d          31.221  68.514 -22.665  0.00  0.00     0.037 C 
ATOM     10  C4  <0> d          30.607  68.297 -23.857  0.00  0.00     0.079 A 
ATOM     11  C3  <0> d          29.671  69.159 -24.604  0.00  0.00     0.268 A 
ATOM     12  S1  <0> d          30.707  66.885 -24.949  0.00  0.00    -0.023 SA
ATOM     13  N1  <0> d          29.225  68.689 -25.757  0.00  0.00    -0.275 N 
ATOM     14  O1  <0> d          29.327  70.247 -24.181  0.00  0.00    -0.266 OA
ATOM     15  C14 <0> d          29.602  67.480 -26.219  0.00  0.00     0.293 A 
ATOM     16  O4  <0> d          29.270  66.928 -27.250  0.00  0.00    -0.259 OA
BRANCH  13  17
ATOM     17  C2  <0> d          28.296  69.501 -26.548  0.00  0.00     0.132 C 
ATOM     18  C1  <0> d          26.869  69.280 -26.043  0.00  0.00     0.027 C 
ENDBRANCH  13  17
ENDBRANCH   1   9
BRANCH   3  19
ATOM     19  O3  <0> d          28.902  71.625 -19.739  0.00  0.00    -0.349 OA
BRANCH  19  20
ATOM     20  C12 <0> d          28.690  70.739 -18.638  0.00  0.00     0.171 C 
ATOM     21  C13 <0> d          29.667  71.082 -17.512  0.00  0.00     0.034 C 
ENDBRANCH  19  20
ENDBRANCH   3  19
BRANCH   4  22
ATOM     22  O2  <0> d          30.830  73.531 -20.203  0.00  0.00    -0.357 OA
ATOM     23  H8  <0> d          31.674  73.996 -20.119  0.00  0.00     0.218 HD
ENDBRANCH   4  22
TORSDOF 5
ENDMDL
MODEL 3
REMARK VINA RESULT:      -5.9      4.762      6.534
REMARK  5 active torsions:
REMARK  status: ('A' for Active; 'I' for Inactive)
REMARK    1  A    between atoms: C2_2  and  N1_3 
REMARK    2  A    between atoms: C5_7  and  C6_8 
REMARK    3  A    between atoms: C8_10  and  O3_17 
REMARK    4  A    between atoms: C9_11  and  O2_16 
REMARK    5  A    between atoms: O3_17  and  C12_18 
ROOT
ATOM      1  C6  <0> d          25.436  69.462 -25.884  0.00  0.00    -0.013 A 
ATOM      2  C7  <0> d          26.150  69.398 -27.087  0.00  0.00     0.052 A 
ATOM      3  C8  <0> d          27.529  69.330 -27.064  0.00  0.00     0.104 A 
ATOM      4  C9  <0> d          28.209  69.319 -25.846  0.00  0.00     0.118 A 
ATOM      5  C10 <0> d          27.503  69.389 -24.651  0.00  0.00     0.065 A 
ATOM      6  C11 <0> d          26.125  69.456 -24.664  0.00  0.00     0.041 A 
ATOM      7 Br1  <0> d          25.167  69.543 -23.036  0.00  0.00    -0.049 Br
ATOM      8 Br2  <0> d          28.433  69.381 -23.005  0.00  0.00    -0.047 Br
ENDROOT
BRANCH   1   9
ATOM      9  C5  <0> d          23.970  69.533 -25.901  0.00  0.00     0.037 C 
ATOM     10  C4  <0> d          23.351  70.734 -26.042  0.00  0.00     0.079 A 
ATOM     11  C3  <0> d          23.923  72.094 -26.039  0.00  0.00     0.268 A 
ATOM     12  S1  <0> d          21.617  71.100 -26.276  0.00  0.00    -0.023 SA
ATOM     13  N1  <0> d          23.075  73.095 -26.203  0.00  0.00    -0.275 N 
ATOM     14  O1  <0> d          25.117  72.285 -25.895  0.00  0.00    -0.266 OA
ATOM     15  C14 <0> d          21.752  72.879 -26.356  0.00  0.00     0.293 A 
ATOM     16  O4  <0> d          20.866  73.698 -26.510  0.00  0.00    -0.259 OA
BRANCH  13  17
ATOM     17  C2  <0> d          23.583  74.468 -26.215  0.00  0.00     0.132 C 
ATOM     18  C1  <0> d          23.888  74.887 -27.655  0.00  0.00     0.027 C 
ENDBRANCH  13  17
ENDBRANCH   1   9
BRANCH   3  19
ATOM     19  O3  <0> d          28.226  69.268 -28.231  0.00  0.00    -0.349 OA
BRANCH  19  20
ATOM     20  C12 <0> d          27.472  69.355 -29.442  0.00  0.00     0.171 C 
ATOM     21  C13 <0> d          27.652  70.743 -30.057  0.00  0.00     0.034 C 
ENDBRANCH  19  20
ENDBRANCH   3  19
BRANCH   4  22
ATOM     22  O2  <0> d          29.565  69.247 -25.828  0.00  0.00    -0.357 OA
ATOM     23  H8  <0> d          29.988  69.927 -25.286  0.00  0.00     0.218 HD
ENDBRANCH   4  22
TORSDOF 5
ENDMDL
MODEL 4
REMARK VINA RESULT:      -5.8     16.252     18.320
REMARK  5 active torsions:
REMARK  status: ('A' for Active; 'I' for Inactive)
REMARK    1  A    between atoms: C2_2  and  N1_3 
REMARK    2  A    between atoms: C5_7  and  C6_8 
REMARK    3  A    between atoms: C8_10  and  O3_17 
REMARK    4  A    between atoms: C9_11  and  O2_16 
REMARK    5  A    between atoms: O3_17  and  C12_18 
ROOT
ATOM      1  C6  <0> d          23.380  55.460 -31.496  0.00  0.00    -0.013 A 
ATOM      2  C7  <0> d          23.548  56.063 -30.243  0.00  0.00     0.052 A 
ATOM      3  C8  <0> d          24.498  55.575 -29.368  0.00  0.00     0.104 A 
ATOM      4  C9  <0> d          25.292  54.488 -29.733  0.00  0.00     0.118 A 
ATOM      5  C10 <0> d          25.123  53.883 -30.972  0.00  0.00     0.065 A 
ATOM      6  C11 <0> d          24.177  54.365 -31.853  0.00  0.00     0.041 A 
ATOM      7 Br1  <0> d          23.955  53.545 -33.543  0.00  0.00    -0.049 Br
ATOM      8 Br2  <0> d          26.198  52.405 -31.455  0.00  0.00    -0.047 Br
ENDROOT
BRANCH   1   9
ATOM      9  C5  <0> d          22.373  55.974 -32.432  0.00  0.00     0.037 C 
ATOM     10  C4  <0> d          21.070  55.618 -32.289  0.00  0.00     0.079 A 
ATOM     11  C3  <0> d          20.460  54.623 -31.386  0.00  0.00     0.268 A 
ATOM     12  S1  <0> d          19.624  56.221 -33.151  0.00  0.00    -0.023 SA
ATOM     13  N1  <0> d          19.147  54.483 -31.459  0.00  0.00    -0.275 N 
ATOM     14  O1  <0> d          21.130  53.967 -30.612  0.00  0.00    -0.266 OA
ATOM     15  C14 <0> d          18.408  55.208 -32.324  0.00  0.00     0.293 A 
ATOM     16  O4  <0> d          17.205  55.179 -32.498  0.00  0.00    -0.259 OA
BRANCH  13  17
ATOM     17  C2  <0> d          18.481  53.516 -30.584  0.00  0.00     0.132 C 
ATOM     18  C1  <0> d          18.314  52.188 -31.326  0.00  0.00     0.027 C 
ENDBRANCH  13  17
ENDBRANCH   1   9
BRANCH   3  19
ATOM     19  O3  <0> d          24.664  56.158 -28.150  0.00  0.00    -0.349 OA
BRANCH  19  20
ATOM     20  C12 <0> d          23.500  56.290 -27.331  0.00  0.00     0.171 C 
ATOM     21  C13 <0> d          23.235  54.970 -26.605  0.00  0.00     0.034 C 
ENDBRANCH  19  20
ENDBRANCH   3  19
BRANCH   4  22
ATOM     22  O2  <0> d          26.228  54.014 -28.871  0.00  0.00    -0.357 OA
ATOM     23  H8  <0> d          27.133  54.058 -29.210  0.00  0.00     0.218 HD
ENDBRANCH   4  22
TORSDOF 5
ENDMDL
MODEL 5
REMARK VINA RESULT:      -5.8      2.170      3.215
REMARK  5 active torsions:
REMARK  status: ('A' for Active; 'I' for Inactive)
REMARK    1  A    between atoms: C2_2  and  N1_3 
REMARK    2  A    between atoms: C5_7  and  C6_8 
REMARK    3  A    between atoms: C8_10  and  O3_17 
REMARK    4  A    between atoms: C9_11  and  O2_16 
REMARK    5  A    between atoms: O3_17  and  C12_18 
ROOT
ATOM      1  C6  <0> d          28.674  70.349 -23.405  0.00  0.00    -0.013 A 
ATOM      2  C7  <0> d          29.759  69.467 -23.333  0.00  0.00     0.052 A 
ATOM      3  C8  <0> d          30.006  68.595 -24.375  0.00  0.00     0.104 A 
ATOM      4  C9  <0> d          29.179  68.597 -25.498  0.00  0.00     0.118 A 
ATOM      5  C10 <0> d          28.098  69.467 -25.569  0.00  0.00     0.065 A 
ATOM      6  C11 <0> d          27.844  70.342 -24.534  0.00  0.00     0.041 A 
ATOM      7 Br1  <0> d          26.377  71.529 -24.636  0.00  0.00    -0.049 Br
ATOM      8 Br2  <0> d          26.978  69.458 -27.093  0.00  0.00    -0.047 Br
ENDROOT
BRANCH   1   9
ATOM      9  C5  <0> d          28.407  71.279 -22.301  0.00  0.00     0.037 C 
ATOM     10  C4  <0> d          27.660  70.877 -21.240  0.00  0.00     0.079 A 
ATOM     11  C3  <0> d          26.894  69.630 -21.048  0.00  0.00     0.268 A 
ATOM     12  S1  <0> d          27.330  71.715 -19.696  0.00  0.00    -0.023 SA
ATOM     13  N1  <0> d          26.253  69.500 -19.898  0.00  0.00    -0.275 N 
ATOM     14  O1  <0> d          26.855  68.765 -21.902  0.00  0.00    -0.266 OA
ATOM     15  C14 <0> d          26.293  70.464 -18.956  0.00  0.00     0.293 A 
ATOM     16  O4  <0> d          25.753  70.478 -17.866  0.00  0.00    -0.259 OA
BRANCH  13  17
ATOM     17  C2  <0> d          25.479  68.283 -19.645  0.00  0.00     0.132 C 
ATOM     18  C1  <0> d          26.385  67.225 -19.009  0.00  0.00     0.027 C 
ENDBRANCH  13  17
ENDBRANCH   1   9
BRANCH   3  19
ATOM     19  O3  <0> d          31.059  67.737 -24.309  0.00  0.00    -0.349 OA
BRANCH  19  20
ATOM     20  C12 <0> d          32.040  67.991 -23.301  0.00  0.00     0.171 C 
ATOM     21  C13 <0> d          33.183  68.813 -23.898  0.00  0.00     0.034 C 
ENDBRANCH  19  20
ENDBRANCH   3  19
BRANCH   4  22
ATOM     22  O2  <0> d          29.428  67.742 -26.524  0.00  0.00    -0.357 OA
ATOM     23  H8  <0> d          30.227  67.951 -27.026  0.00  0.00     0.218 HD
ENDBRANCH   4  22
TORSDOF 5
ENDMDL
MODEL 6
REMARK VINA RESULT:      -5.6     18.732     20.121
REMARK  5 active torsions:
REMARK  status: ('A' for Active; 'I' for Inactive)
REMARK    1  A    between atoms: C2_2  and  N1_3 
REMARK    2  A    between atoms: C5_7  and  C6_8 
REMARK    3  A    between atoms: C8_10  and  O3_17 
REMARK    4  A    between atoms: C9_11  and  O2_16 
REMARK    5  A    between atoms: O3_17  and  C12_18 
ROOT
ATOM      1  C6  <0> d          31.720  89.769 -20.013  0.00  0.00    -0.013 A 
ATOM      2  C7  <0> d          31.150  89.038 -21.063  0.00  0.00     0.052 A 
ATOM      3  C8  <0> d          31.846  88.874 -22.244  0.00  0.00     0.104 A 
ATOM      4  C9  <0> d          33.116  89.432 -22.389  0.00  0.00     0.118 A 
ATOM      5  C10 <0> d          33.682  90.163 -21.353  0.00  0.00     0.065 A 
ATOM      6  C11 <0> d          32.994  90.331 -20.169  0.00  0.00     0.041 A 
ATOM      7 Br1  <0> d          33.770  91.320 -18.756  0.00  0.00    -0.049 Br
ATOM      8 Br2  <0> d          35.401  90.921 -21.561  0.00  0.00    -0.047 Br
ENDROOT
BRANCH   1   9
ATOM      9  C5  <0> d          30.986  89.945 -18.754  0.00  0.00     0.037 C 
ATOM     10  C4  <0> d          31.132  89.040 -17.752  0.00  0.00     0.079 A 
ATOM     11  C3  <0> d          31.834  87.743 -17.750  0.00  0.00     0.268 A 
ATOM     12  S1  <0> d          30.518  89.092 -16.073  0.00  0.00    -0.023 SA
ATOM     13  N1  <0> d          31.818  87.061 -16.617  0.00  0.00    -0.275 N 
ATOM     14  O1  <0> d          32.402  87.321 -18.741  0.00  0.00    -0.266 OA
ATOM     15  C14 <0> d          31.182  87.528 -15.523  0.00  0.00     0.293 A 
ATOM     16  O4  <0> d          31.084  87.009 -14.428  0.00  0.00    -0.259 OA
BRANCH  13  17
ATOM     17  C2  <0> d          32.502  85.768 -16.550  0.00  0.00     0.132 C 
ATOM     18  C1  <0> d          33.891  85.957 -15.936  0.00  0.00     0.027 C 
ENDBRANCH  13  17
ENDBRANCH   1   9
BRANCH   3  19
ATOM     19  O3  <0> d          31.294  88.165 -23.266  0.00  0.00    -0.349 OA
BRANCH  19  20
ATOM     20  C12 <0> d          29.999  87.604 -23.040  0.00  0.00     0.171 C 
ATOM     21  C13 <0> d          30.141  86.123 -22.687  0.00  0.00     0.034 C 
ENDBRANCH  19  20
ENDBRANCH   3  19
BRANCH   4  22
ATOM     22  O2  <0> d          33.799  89.265 -23.551  0.00  0.00    -0.357 OA
ATOM     23  H8  <0> d          33.828  88.350 -23.863  0.00  0.00     0.218 HD
ENDBRANCH   4  22
TORSDOF 5
ENDMDL
MODEL 7
REMARK VINA RESULT:      -5.4     18.593     21.313
REMARK  5 active torsions:
REMARK  status: ('A' for Active; 'I' for Inactive)
REMARK    1  A    between atoms: C2_2  and  N1_3 
REMARK    2  A    between atoms: C5_7  and  C6_8 
REMARK    3  A    between atoms: C8_10  and  O3_17 
REMARK    4  A    between atoms: C9_11  and  O2_16 
REMARK    5  A    between atoms: O3_17  and  C12_18 
ROOT
ATOM      1  C6  <0> d          29.046  56.337  -7.098  0.00  0.00    -0.013 A 
ATOM      2  C7  <0> d          28.116  55.432  -6.571  0.00  0.00     0.052 A 
ATOM      3  C8  <0> d          28.554  54.346  -5.838  0.00  0.00     0.104 A 
ATOM      4  C9  <0> d          29.918  54.155  -5.621  0.00  0.00     0.118 A 
ATOM      5  C10 <0> d          30.843  55.047  -6.148  0.00  0.00     0.065 A 
ATOM      6  C11 <0> d          30.415  56.135  -6.880  0.00  0.00     0.041 A 
ATOM      7 Br1  <0> d          31.675  57.352  -7.591  0.00  0.00    -0.049 Br
ATOM      8 Br2  <0> d          32.691  54.775  -5.854  0.00  0.00    -0.047 Br
ENDROOT
BRANCH   1   9
ATOM      9  C5  <0> d          28.587  57.494  -7.877  0.00  0.00     0.037 C 
ATOM     10  C4  <0> d          28.356  58.681  -7.257  0.00  0.00     0.079 A 
ATOM     11  C3  <0> d          28.345  59.003  -5.817  0.00  0.00     0.268 A 
ATOM     12  S1  <0> d          27.975  60.278  -7.962  0.00  0.00    -0.023 SA
ATOM     13  N1  <0> d          28.091  60.260  -5.493  0.00  0.00    -0.275 N 
ATOM     14  O1  <0> d          28.562  58.157  -4.970  0.00  0.00    -0.266 OA
ATOM     15  C14 <0> d          27.845  61.194  -6.434  0.00  0.00     0.293 A 
ATOM     16  O4  <0> d          27.595  62.374  -6.280  0.00  0.00    -0.259 OA
BRANCH  13  17
ATOM     17  C2  <0> d          28.071  60.644  -4.080  0.00  0.00     0.132 C 
ATOM     18  C1  <0> d          26.654  60.484  -3.527  0.00  0.00     0.027 C 
ENDBRANCH  13  17
ENDBRANCH   1   9
BRANCH   3  19
ATOM     19  O3  <0> d          27.654  53.465  -5.325  0.00  0.00    -0.349 OA
BRANCH  19  20
ATOM     20  C12 <0> d          26.727  53.972  -4.362  0.00  0.00     0.171 C 
ATOM     21  C13 <0> d          27.048  53.385  -2.987  0.00  0.00     0.034 C 
ENDBRANCH  19  20
ENDBRANCH   3  19
BRANCH   4  22
ATOM     22  O2  <0> d          30.344  53.089  -4.895  0.00  0.00    -0.357 OA
ATOM     23  H8  <0> d          30.261  52.241  -5.354  0.00  0.00     0.218 HD
ENDBRANCH   4  22
TORSDOF 5
ENDMDL
MODEL 8
REMARK VINA RESULT:      -5.3      4.229      4.874
REMARK  5 active torsions:
REMARK  status: ('A' for Active; 'I' for Inactive)
REMARK    1  A    between atoms: C2_2  and  N1_3 
REMARK    2  A    between atoms: C5_7  and  C6_8 
REMARK    3  A    between atoms: C8_10  and  O3_17 
REMARK    4  A    between atoms: C9_11  and  O2_16 
REMARK    5  A    between atoms: O3_17  and  C12_18 
ROOT
ATOM      1  C6  <0> d          25.758  69.465 -24.209  0.00  0.00    -0.013 A 
ATOM      2  C7  <0> d          25.695  69.496 -25.607  0.00  0.00     0.052 A 
ATOM      3  C8  <0> d          26.860  69.464 -26.348  0.00  0.00     0.104 A 
ATOM      4  C9  <0> d          28.096  69.396 -25.705  0.00  0.00     0.118 A 
ATOM      5  C10 <0> d          28.162  69.371 -24.318  0.00  0.00     0.065 A 
ATOM      6  C11 <0> d          27.003  69.402 -23.569  0.00  0.00     0.041 A 
ATOM      7 Br1  <0> d          27.096  69.361 -21.681  0.00  0.00    -0.049 Br
ATOM      8 Br2  <0> d          29.842  69.286 -23.454  0.00  0.00    -0.047 Br
ENDROOT
BRANCH   1   9
ATOM      9  C5  <0> d          24.524  69.497 -23.415  0.00  0.00     0.037 C 
ATOM     10  C4  <0> d          23.916  70.684 -23.154  0.00  0.00     0.079 A 
ATOM     11  C3  <0> d          24.381  72.059 -23.422  0.00  0.00     0.268 A 
ATOM     12  S1  <0> d          22.336  71.009 -22.385  0.00  0.00    -0.023 SA
ATOM     13  N1  <0> d          23.571  73.039 -23.060  0.00  0.00    -0.275 N 
ATOM     14  O1  <0> d          25.455  72.278 -23.951  0.00  0.00    -0.266 OA
ATOM     15  C14 <0> d          22.386  72.792 -22.468  0.00  0.00     0.293 A 
ATOM     16  O4  <0> d          21.552  73.590 -22.084  0.00  0.00    -0.259 OA
BRANCH  13  17
ATOM     17  C2  <0> d          23.975  74.426 -23.305  0.00  0.00     0.132 C 
ATOM     18  C1  <0> d          23.325  74.926 -24.597  0.00  0.00     0.027 C 
ENDBRANCH  13  17
ENDBRANCH   1   9
BRANCH   3  19
ATOM     19  O3  <0> d          26.802  69.494 -27.707  0.00  0.00    -0.349 OA
BRANCH  19  20
ATOM     20  C12 <0> d          26.619  70.773 -28.320  0.00  0.00     0.171 C 
ATOM     21  C13 <0> d          27.306  70.786 -29.686  0.00  0.00     0.034 C 
ENDBRANCH  19  20
ENDBRANCH   3  19
BRANCH   4  22
ATOM     22  O2  <0> d          29.239  69.359 -26.438  0.00  0.00    -0.357 OA
ATOM     23  H8  <0> d          29.270  70.011 -27.151  0.00  0.00     0.218 HD
ENDBRANCH   4  22
TORSDOF 5
ENDMDL
MODEL 9
REMARK VINA RESULT:      -5.3     18.638     21.659
REMARK  5 active torsions:
REMARK  status: ('A' for Active; 'I' for Inactive)
REMARK    1  A    between atoms: C2_2  and  N1_3 
REMARK    2  A    between atoms: C5_7  and  C6_8 
REMARK    3  A    between atoms: C8_10  and  O3_17 
REMARK    4  A    between atoms: C9_11  and  O2_16 
REMARK    5  A    between atoms: O3_17  and  C12_18 
ROOT
ATOM      1  C6  <0> d          29.012  55.971  -6.698  0.00  0.00    -0.013 A 
ATOM      2  C7  <0> d          28.021  56.824  -7.201  0.00  0.00     0.052 A 
ATOM      3  C8  <0> d          28.347  58.116  -7.562  0.00  0.00     0.104 A 
ATOM      4  C9  <0> d          29.659  58.569  -7.431  0.00  0.00     0.118 A 
ATOM      5  C10 <0> d          30.642  57.728  -6.926  0.00  0.00     0.065 A 
ATOM      6  C11 <0> d          30.327  56.435  -6.564  0.00  0.00     0.041 A 
ATOM      7 Br1  <0> d          31.669  55.289  -5.884  0.00  0.00    -0.049 Br
ATOM      8 Br2  <0> d          32.418  58.353  -6.745  0.00  0.00    -0.047 Br
ENDROOT
BRANCH   1   9
ATOM      9  C5  <0> d          28.673  54.595  -6.314  0.00  0.00     0.037 C 
ATOM     10  C4  <0> d          28.170  54.341  -5.078  0.00  0.00     0.079 A 
ATOM     11  C3  <0> d          28.024  55.241  -3.918  0.00  0.00     0.268 A 
ATOM     12  S1  <0> d          27.509  52.821  -4.408  0.00  0.00    -0.023 SA
ATOM     13  N1  <0> d          27.490  54.719  -2.826  0.00  0.00    -0.275 N 
ATOM     14  O1  <0> d          28.375  56.405  -3.963  0.00  0.00    -0.266 OA
ATOM     15  C14 <0> d          27.109  53.426  -2.777  0.00  0.00     0.293 A 
ATOM     16  O4  <0> d          26.613  52.820  -1.847  0.00  0.00    -0.259 OA
BRANCH  13  17
ATOM     17  C2  <0> d          27.313  55.563  -1.642  0.00  0.00     0.132 C 
ATOM     18  C1  <0> d          28.517  55.395  -0.711  0.00  0.00     0.027 C 
ENDBRANCH  13  17
ENDBRANCH   1   9
BRANCH   3  19
ATOM     19  O3  <0> d          27.387  58.948  -8.051  0.00  0.00    -0.349 OA
BRANCH  19  20
ATOM     20  C12 <0> d          27.168  58.926  -9.463  0.00  0.00     0.171 C 
ATOM     21  C13 <0> d          26.366  60.161  -9.874  0.00  0.00     0.034 C 
ENDBRANCH  19  20
ENDBRANCH   3  19
BRANCH   4  22
ATOM     22  O2  <0> d          29.976  59.840  -7.792  0.00  0.00    -0.357 OA
ATOM     23  H8  <0> d          30.519  60.310  -7.144  0.00  0.00     0.218 HD
ENDBRANCH   4  22
TORSDOF 5
ENDMDL
MODEL 10
REMARK VINA RESULT:      -5.2     19.774     21.810
REMARK  5 active torsions:
REMARK  status: ('A' for Active; 'I' for Inactive)
REMARK    1  A    between atoms: C2_2  and  N1_3 
REMARK    2  A    between atoms: C5_7  and  C6_8 
REMARK    3  A    between atoms: C8_10  and  O3_17 
REMARK    4  A    between atoms: C9_11  and  O2_16 
REMARK    5  A    between atoms: O3_17  and  C12_18 
ROOT
ATOM      1  C6  <0> d          30.095  56.963  -7.070  0.00  0.00    -0.013 A 
ATOM      2  C7  <0> d          29.113  55.996  -6.823  0.00  0.00     0.052 A 
ATOM      3  C8  <0> d          27.805  56.383  -6.612  0.00  0.00     0.104 A 
ATOM      4  C9  <0> d          27.461  57.734  -6.650  0.00  0.00     0.118 A 
ATOM      5  C10 <0> d          28.434  58.697  -6.889  0.00  0.00     0.065 A 
ATOM      6  C11 <0> d          29.743  58.319  -7.101  0.00  0.00     0.041 A 
ATOM      7 Br1  <0> d          31.064  59.631  -7.433  0.00  0.00    -0.049 Br
ATOM      8 Br2  <0> d          27.960  60.527  -6.931  0.00  0.00    -0.047 Br
ENDROOT
BRANCH   1   9
ATOM      9  C5  <0> d          31.488  56.558  -7.296  0.00  0.00     0.037 C 
ATOM     10  C4  <0> d          32.318  56.363  -6.238  0.00  0.00     0.079 A 
ATOM     11  C3  <0> d          32.098  56.642  -4.806  0.00  0.00     0.268 A 
ATOM     12  S1  <0> d          33.979  55.705  -6.201  0.00  0.00    -0.023 SA
ATOM     13  N1  <0> d          33.092  56.346  -3.986  0.00  0.00    -0.275 N 
ATOM     14  O1  <0> d          31.055  57.119  -4.400  0.00  0.00    -0.266 OA
ATOM     15  C14 <0> d          34.250  55.825  -4.440  0.00  0.00     0.293 A 
ATOM     16  O4  <0> d          35.238  55.511  -3.805  0.00  0.00    -0.259 OA
BRANCH  13  17
ATOM     17  C2  <0> d          32.933  56.595  -2.551  0.00  0.00     0.132 C 
ATOM     18  C1  <0> d          33.505  57.972  -2.206  0.00  0.00     0.027 C 
ENDBRANCH  13  17
ENDBRANCH   1   9
BRANCH   3  19
ATOM     19  O3  <0> d          26.848  55.446  -6.371  0.00  0.00    -0.349 OA
BRANCH  19  20
ATOM     20  C12 <0> d          26.614  55.094  -5.006  0.00  0.00     0.171 C 
ATOM     21  C13 <0> d          27.084  53.659  -4.762  0.00  0.00     0.034 C 
ENDBRANCH  19  20
ENDBRANCH   3  19
BRANCH   4  22
ATOM     22  O2  <0> d          26.172  58.111  -6.448  0.00  0.00    -0.357 OA
ATOM     23  H8  <0> d          26.072  59.022  -6.140  0.00  0.00     0.218 HD
ENDBRANCH   4  22
TORSDOF 5
ENDMDL
