MODEL 1
REMARK VINA RESULT:      -6.5      0.000      0.000
REMARK  4 active torsions:
REMARK  status: ('A' for Active; 'I' for Inactive)
REMARK    1  A    between atoms: C2_2  and  C3_3 
REMARK    2  A    between atoms: C3_3  and  N1_4 
REMARK    3  A    between atoms: C6_8  and  C7_9 
REMARK    4  A    between atoms: N2_13  and  C11_14 
ROOT
ATOM      1  C7  <0> d          29.627  68.360 -23.674  0.00  0.00     0.040 A 
ATOM      2  C8  <0> d          30.133  67.442 -24.577  0.00  0.00     0.031 A 
ATOM      3  C9  <0> d          31.527  67.491 -24.476  0.00  0.00     0.020 A 
ATOM      4  C10 <0> d          31.846  68.418 -23.540  0.00  0.00     0.097 A 
ATOM      5  N2  <0> d          30.699  68.951 -23.040  0.00  0.00    -0.322 N 
ENDROOT
BRANCH   1   6
ATOM      6  C6  <0> d          28.259  68.640 -23.443  0.00  0.00     0.054 C 
ATOM      7  C5  <0> d          27.540  69.334 -24.370  0.00  0.00     0.080 A 
ATOM      8  C4  <0> d          27.978  69.968 -25.571  0.00  0.00     0.268 A 
ATOM      9  S1  <0> d          25.788  69.689 -24.416  0.00  0.00    -0.023 SA
ATOM     10  N1  <0> d          27.074  70.587 -26.311  0.00  0.00    -0.271 N 
ATOM     11  O1  <0> d          29.149  69.942 -25.903  0.00  0.00    -0.266 OA
ATOM     12  C17 <0> d          25.774  70.616 -25.943  0.00  0.00     0.294 A 
ATOM     13  O2  <0> d          24.833  71.137 -26.510  0.00  0.00    -0.259 OA
BRANCH  10  14
ATOM     14  C3  <0> d          27.488  71.249 -27.551  0.00  0.00     0.162 C 
BRANCH  14  15
ATOM     15  C2  <0> d          27.289  70.312 -28.714  0.00  0.00    -0.017 C 
ATOM     16  C1  <0> d          27.455  70.742 -29.939  0.00  0.00     0.008 C 
ENDBRANCH  14  15
ENDBRANCH  10  14
ENDBRANCH   1   6
BRANCH   5  17
ATOM     17  C11 <0> d          30.620  69.939 -22.050  0.00  0.00     0.039 A 
ATOM     18  C16 <0> d          30.847  69.611 -20.720  0.00  0.00     0.031 A 
ATOM     19  C15 <0> d          30.767  70.587 -19.746  0.00  0.00     0.020 A 
ATOM     20  C14 <0> d          30.460  71.890 -20.094  0.00  0.00     0.006 A 
ATOM     21  C13 <0> d          30.235  72.220 -21.419  0.00  0.00     0.020 A 
ATOM     22  I1  <0> d          30.349  73.369 -18.615  0.00  0.00    -0.045 I 
ATOM     23  C12 <0> d          30.313  71.248 -22.397  0.00  0.00     0.031 A 
ENDBRANCH   5  17
TORSDOF 4
ENDMDL
MODEL 2
REMARK VINA RESULT:      -6.5      3.799      6.292
REMARK  4 active torsions:
REMARK  status: ('A' for Active; 'I' for Inactive)
REMARK    1  A    between atoms: C2_2  and  C3_3 
REMARK    2  A    between atoms: C3_3  and  N1_4 
REMARK    3  A    between atoms: C6_8  and  C7_9 
REMARK    4  A    between atoms: N2_13  and  C11_14 
ROOT
ATOM      1  C7  <0> d          28.530  70.255 -20.239  0.00  0.00     0.040 A 
ATOM      2  C8  <0> d          28.453  69.590 -19.028  0.00  0.00     0.031 A 
ATOM      3  C9  <0> d          27.652  68.461 -19.228  0.00  0.00     0.020 A 
ATOM      4  C10 <0> d          27.256  68.455 -20.524  0.00  0.00     0.097 A 
ATOM      5  N2  <0> d          27.787  69.537 -21.153  0.00  0.00    -0.322 N 
ENDROOT
BRANCH   1   6
ATOM      6  C6  <0> d          29.241  71.452 -20.493  0.00  0.00     0.054 C 
ATOM      7  C5  <0> d          30.460  71.404 -21.102  0.00  0.00     0.080 A 
ATOM      8  C4  <0> d          31.254  70.273 -21.457  0.00  0.00     0.268 A 
ATOM      9  S1  <0> d          31.495  72.742 -21.680  0.00  0.00    -0.023 SA
ATOM     10  N1  <0> d          32.416  70.491 -22.047  0.00  0.00    -0.271 N 
ATOM     11  O1  <0> d          30.873  69.140 -21.223  0.00  0.00    -0.266 OA
ATOM     12  C17 <0> d          32.839  71.748 -22.307  0.00  0.00     0.294 A 
ATOM     13  O2  <0> d          33.872  72.110 -22.838  0.00  0.00    -0.259 OA
BRANCH  10  14
ATOM     14  C3  <0> d          33.258  69.354 -22.427  0.00  0.00     0.162 C 
BRANCH  14  15
ATOM     15  C2  <0> d          32.919  68.922 -23.830  0.00  0.00    -0.017 C 
ATOM     16  C1  <0> d          32.301  67.785 -24.035  0.00  0.00     0.008 C 
ENDBRANCH  14  15
ENDBRANCH  10  14
ENDBRANCH   1   6
BRANCH   5  17
ATOM     17  C11 <0> d          27.606  69.870 -22.502  0.00  0.00     0.039 A 
ATOM     18  C16 <0> d          26.683  70.844 -22.860  0.00  0.00     0.031 A 
ATOM     19  C15 <0> d          26.505  71.169 -24.190  0.00  0.00     0.020 A 
ATOM     20  C14 <0> d          27.246  70.527 -25.166  0.00  0.00     0.006 A 
ATOM     21  C13 <0> d          28.168  69.558 -24.812  0.00  0.00     0.020 A 
ATOM     22  I1  <0> d          26.981  71.031 -27.181  0.00  0.00    -0.045 I 
ATOM     23  C12 <0> d          28.349  69.228 -23.483  0.00  0.00     0.031 A 
ENDBRANCH   5  17
TORSDOF 4
ENDMDL
MODEL 3
REMARK VINA RESULT:      -6.4      2.586      3.978
REMARK  4 active torsions:
REMARK  status: ('A' for Active; 'I' for Inactive)
REMARK    1  A    between atoms: C2_2  and  C3_3 
REMARK    2  A    between atoms: C3_3  and  N1_4 
REMARK    3  A    between atoms: C6_8  and  C7_9 
REMARK    4  A    between atoms: N2_13  and  C11_14 
ROOT
ATOM      1  C7  <0> d          25.763  70.648 -23.567  0.00  0.00     0.040 A 
ATOM      2  C8  <0> d          24.451  70.284 -23.323  0.00  0.00     0.031 A 
ATOM      3  C9  <0> d          24.476  69.277 -22.353  0.00  0.00     0.020 A 
ATOM      4  C10 <0> d          25.770  69.041 -22.029  0.00  0.00     0.097 A 
ATOM      5  N2  <0> d          26.565  69.872 -22.756  0.00  0.00    -0.322 N 
ENDROOT
BRANCH   1   6
ATOM      6  C6  <0> d          26.203  71.635 -24.480  0.00  0.00     0.054 C 
ATOM      7  C5  <0> d          26.427  71.306 -25.784  0.00  0.00     0.080 A 
ATOM      8  C4  <0> d          26.399  70.026 -26.415  0.00  0.00     0.268 A 
ATOM      9  S1  <0> d          26.827  72.362 -27.170  0.00  0.00    -0.023 SA
ATOM     10  N1  <0> d          26.654  69.968 -27.711  0.00  0.00    -0.271 N 
ATOM     11  O1  <0> d          26.148  69.018 -25.780  0.00  0.00    -0.266 OA
ATOM     12  C17 <0> d          26.933  71.087 -28.416  0.00  0.00     0.294 A 
ATOM     13  O2  <0> d          27.186  71.197 -29.602  0.00  0.00    -0.259 OA
BRANCH  10  14
ATOM     14  C3  <0> d          26.635  68.671 -28.393  0.00  0.00     0.162 C 
BRANCH  14  15
ATOM     15  C2  <0> d          28.042  68.271 -28.754  0.00  0.00    -0.017 C 
ATOM     16  C1  <0> d          28.719  67.473 -27.967  0.00  0.00     0.008 C 
ENDBRANCH  14  15
ENDBRANCH  10  14
ENDBRANCH   1   6
BRANCH   5  17
ATOM     17  C11 <0> d          27.963  69.927 -22.696  0.00  0.00     0.039 A 
ATOM     18  C16 <0> d          28.727  69.042 -23.445  0.00  0.00     0.031 A 
ATOM     19  C15 <0> d          30.105  69.097 -23.382  0.00  0.00     0.020 A 
ATOM     20  C14 <0> d          30.726  70.033 -22.574  0.00  0.00     0.006 A 
ATOM     21  C13 <0> d          29.968  70.917 -21.828  0.00  0.00     0.020 A 
ATOM     22  I1  <0> d          32.817  70.119 -22.490  0.00  0.00    -0.045 I 
ATOM     23  C12 <0> d          28.588  70.866 -21.886  0.00  0.00     0.031 A 
ENDBRANCH   5  17
TORSDOF 4
ENDMDL
MODEL 4
REMARK VINA RESULT:      -6.3      4.055      5.989
REMARK  4 active torsions:
REMARK  status: ('A' for Active; 'I' for Inactive)
REMARK    1  A    between atoms: C2_2  and  C3_3 
REMARK    2  A    between atoms: C3_3  and  N1_4 
REMARK    3  A    between atoms: C6_8  and  C7_9 
REMARK    4  A    between atoms: N2_13  and  C11_14 
ROOT
ATOM      1  C7  <0> d          26.762  70.971 -28.068  0.00  0.00     0.040 A 
ATOM      2  C8  <0> d          27.238  70.660 -29.330  0.00  0.00     0.031 A 
ATOM      3  C9  <0> d          27.535  69.294 -29.332  0.00  0.00     0.020 A 
ATOM      4  C10 <0> d          27.250  68.802 -28.102  0.00  0.00     0.097 A 
ATOM      5  N2  <0> d          26.774  69.810 -27.324  0.00  0.00    -0.322 N 
ENDROOT
BRANCH   1   6
ATOM      6  C6  <0> d          26.341  72.246 -27.624  0.00  0.00     0.054 C 
ATOM      7  C5  <0> d          25.021  72.586 -27.678  0.00  0.00     0.080 A 
ATOM      8  C4  <0> d          23.923  71.872 -28.245  0.00  0.00     0.268 A 
ATOM      9  S1  <0> d          24.196  74.042 -27.051  0.00  0.00    -0.023 SA
ATOM     10  N1  <0> d          22.722  72.420 -28.170  0.00  0.00    -0.271 N 
ATOM     11  O1  <0> d          24.087  70.793 -28.783  0.00  0.00    -0.266 OA
ATOM     12  C17 <0> d          22.541  73.619 -27.573  0.00  0.00     0.294 A 
ATOM     13  O2  <0> d          21.510  74.248 -27.424  0.00  0.00    -0.259 OA
BRANCH  10  14
ATOM     14  C3  <0> d          21.571  71.717 -28.741  0.00  0.00     0.162 C 
BRANCH  14  15
ATOM     15  C2  <0> d          20.824  71.001 -27.646  0.00  0.00    -0.017 C 
ATOM     16  C1  <0> d          21.046  69.729 -27.424  0.00  0.00     0.008 C 
ENDBRANCH  14  15
ENDBRANCH  10  14
ENDBRANCH   1   6
BRANCH   5  17
ATOM     17  C11 <0> d          26.367  69.691 -25.989  0.00  0.00     0.039 A 
ATOM     18  C16 <0> d          27.288  69.864 -24.964  0.00  0.00     0.031 A 
ATOM     19  C15 <0> d          26.885  69.744 -23.648  0.00  0.00     0.020 A 
ATOM     20  C14 <0> d          25.565  69.453 -23.351  0.00  0.00     0.006 A 
ATOM     21  C13 <0> d          24.646  69.282 -24.370  0.00  0.00     0.020 A 
ATOM     22  I1  <0> d          24.957  69.282 -21.354  0.00  0.00    -0.045 I 
ATOM     23  C12 <0> d          25.043  69.399 -25.688  0.00  0.00     0.031 A 
ENDBRANCH   5  17
TORSDOF 4
ENDMDL
MODEL 5
REMARK VINA RESULT:      -6.3      3.124      5.314
REMARK  4 active torsions:
REMARK  status: ('A' for Active; 'I' for Inactive)
REMARK    1  A    between atoms: C2_2  and  C3_3 
REMARK    2  A    between atoms: C3_3  and  N1_4 
REMARK    3  A    between atoms: C6_8  and  C7_9 
REMARK    4  A    between atoms: N2_13  and  C11_14 
ROOT
ATOM      1  C7  <0> d          29.545  69.936 -18.415  0.00  0.00     0.040 A 
ATOM      2  C8  <0> d          29.851  68.671 -17.946  0.00  0.00     0.031 A 
ATOM      3  C9  <0> d          30.857  68.820 -16.985  0.00  0.00     0.020 A 
ATOM      4  C10 <0> d          31.147  70.140 -16.886  0.00  0.00     0.097 A 
ATOM      5  N2  <0> d          30.354  70.831 -17.747  0.00  0.00    -0.322 N 
ENDROOT
BRANCH   1   6
ATOM      6  C6  <0> d          28.580  70.252 -19.400  0.00  0.00     0.054 C 
ATOM      7  C5  <0> d          28.891  70.134 -20.722  0.00  0.00     0.080 A 
ATOM      8  C4  <0> d          30.141  69.828 -21.337  0.00  0.00     0.268 A 
ATOM      9  S1  <0> d          27.839  70.311 -22.157  0.00  0.00    -0.023 SA
ATOM     10  N1  <0> d          30.186  69.770 -22.657  0.00  0.00    -0.271 N 
ATOM     11  O1  <0> d          31.138  69.628 -20.667  0.00  0.00    -0.266 OA
ATOM     12  C17 <0> d          29.080  69.993 -23.401  0.00  0.00     0.294 A 
ATOM     13  O2  <0> d          28.960  69.976 -24.612  0.00  0.00    -0.259 OA
BRANCH  10  14
ATOM     14  C3  <0> d          31.453  69.459 -23.323  0.00  0.00     0.162 C 
BRANCH  14  15
ATOM     15  C2  <0> d          31.626  67.965 -23.403  0.00  0.00    -0.017 C 
ATOM     16  C1  <0> d          32.177  67.424 -24.462  0.00  0.00     0.008 C 
ENDBRANCH  14  15
ENDBRANCH  10  14
ENDBRANCH   1   6
BRANCH   5  17
ATOM     17  C11 <0> d          30.359  72.221 -17.929  0.00  0.00     0.039 A 
ATOM     18  C16 <0> d          29.661  73.040 -17.052  0.00  0.00     0.031 A 
ATOM     19  C15 <0> d          29.667  74.409 -17.235  0.00  0.00     0.020 A 
ATOM     20  C14 <0> d          30.368  74.964 -18.290  0.00  0.00     0.006 A 
ATOM     21  C13 <0> d          31.066  74.151 -19.164  0.00  0.00     0.020 A 
ATOM     22  I1  <0> d          30.382  77.042 -18.558  0.00  0.00    -0.045 I 
ATOM     23  C12 <0> d          31.063  72.781 -18.987  0.00  0.00     0.031 A 
ENDBRANCH   5  17
TORSDOF 4
ENDMDL
MODEL 6
REMARK VINA RESULT:      -6.1      3.487      5.063
REMARK  4 active torsions:
REMARK  status: ('A' for Active; 'I' for Inactive)
REMARK    1  A    between atoms: C2_2  and  C3_3 
REMARK    2  A    between atoms: C3_3  and  N1_4 
REMARK    3  A    between atoms: C6_8  and  C7_9 
REMARK    4  A    between atoms: N2_13  and  C11_14 
ROOT
ATOM      1  C7  <0> d          29.257  70.703 -20.516  0.00  0.00     0.040 A 
ATOM      2  C8  <0> d          30.600  70.892 -20.247  0.00  0.00     0.031 A 
ATOM      3  C9  <0> d          30.875  70.244 -19.039  0.00  0.00     0.020 A 
ATOM      4  C10 <0> d          29.723  69.685 -18.594  0.00  0.00     0.097 A 
ATOM      5  N2  <0> d          28.731  69.951 -19.485  0.00  0.00    -0.322 N 
ENDROOT
BRANCH   1   6
ATOM      6  C6  <0> d          28.551  71.189 -21.641  0.00  0.00     0.054 C 
ATOM      7  C5  <0> d          28.455  70.428 -22.768  0.00  0.00     0.080 A 
ATOM      8  C4  <0> d          29.077  69.180 -23.076  0.00  0.00     0.268 A 
ATOM      9  S1  <0> d          27.511  70.716 -24.258  0.00  0.00    -0.023 SA
ATOM     10  N1  <0> d          28.822  68.634 -24.252  0.00  0.00    -0.271 N 
ATOM     11  O1  <0> d          29.820  68.636 -22.280  0.00  0.00    -0.266 OA
ATOM     12  C17 <0> d          27.997  69.238 -25.136  0.00  0.00     0.294 A 
ATOM     13  O2  <0> d          27.666  68.867 -26.247  0.00  0.00    -0.259 OA
BRANCH  10  14
ATOM     14  C3  <0> d          29.443  67.354 -24.604  0.00  0.00     0.162 C 
BRANCH  14  15
ATOM     15  C2  <0> d          30.791  67.603 -25.228  0.00  0.00    -0.017 C 
ATOM     16  C1  <0> d          31.884  67.335 -24.557  0.00  0.00     0.008 C 
ENDBRANCH  14  15
ENDBRANCH  10  14
ENDBRANCH   1   6
BRANCH   5  17
ATOM     17  C11 <0> d          27.397  69.537 -19.373  0.00  0.00     0.039 A 
ATOM     18  C16 <0> d          27.008  68.301 -19.870  0.00  0.00     0.031 A 
ATOM     19  C15 <0> d          25.693  67.896 -19.760  0.00  0.00     0.020 A 
ATOM     20  C14 <0> d          24.762  68.721 -19.154  0.00  0.00     0.006 A 
ATOM     21  C13 <0> d          25.147  69.953 -18.656  0.00  0.00     0.020 A 
ATOM     22  I1  <0> d          22.770  68.100 -18.980  0.00  0.00    -0.045 I 
ATOM     23  C12 <0> d          26.462  70.364 -18.765  0.00  0.00     0.031 A 
ENDBRANCH   5  17
TORSDOF 4
ENDMDL
MODEL 7
REMARK VINA RESULT:      -5.9      2.914      4.245
REMARK  4 active torsions:
REMARK  status: ('A' for Active; 'I' for Inactive)
REMARK    1  A    between atoms: C2_2  and  C3_3 
REMARK    2  A    between atoms: C3_3  and  N1_4 
REMARK    3  A    between atoms: C6_8  and  C7_9 
REMARK    4  A    between atoms: N2_13  and  C11_14 
ROOT
ATOM      1  C7  <0> d          26.063  70.588 -22.721  0.00  0.00     0.040 A 
ATOM      2  C8  <0> d          24.829  70.401 -22.124  0.00  0.00     0.031 A 
ATOM      3  C9  <0> d          24.978  69.378 -21.181  0.00  0.00     0.020 A 
ATOM      4  C10 <0> d          26.267  68.962 -21.218  0.00  0.00     0.097 A 
ATOM      5  N2  <0> d          26.940  69.692 -22.146  0.00  0.00    -0.322 N 
ENDROOT
BRANCH   1   6
ATOM      6  C6  <0> d          26.369  71.526 -23.735  0.00  0.00     0.054 C 
ATOM      7  C5  <0> d          26.074  71.245 -25.036  0.00  0.00     0.080 A 
ATOM      8  C4  <0> d          25.573  70.039 -25.613  0.00  0.00     0.268 A 
ATOM      9  S1  <0> d          26.202  72.288 -26.481  0.00  0.00    -0.023 SA
ATOM     10  N1  <0> d          25.366  70.016 -26.918  0.00  0.00    -0.271 N 
ATOM     11  O1  <0> d          25.344  69.062 -24.924  0.00  0.00    -0.266 OA
ATOM     12  C17 <0> d          25.620  71.102 -27.682  0.00  0.00     0.294 A 
ATOM     13  O2  <0> d          25.483  71.237 -28.884  0.00  0.00    -0.259 OA
BRANCH  10  14
ATOM     14  C3  <0> d          24.852  68.796 -27.546  0.00  0.00     0.162 C 
BRANCH  14  15
ATOM     15  C2  <0> d          23.354  68.888 -27.674  0.00  0.00    -0.017 C 
ATOM     16  C1  <0> d          22.618  67.811 -27.559  0.00  0.00     0.008 C 
ENDBRANCH  14  15
ENDBRANCH  10  14
ENDBRANCH   1   6
BRANCH   5  17
ATOM     17  C11 <0> d          28.297  69.555 -22.468  0.00  0.00     0.039 A 
ATOM     18  C16 <0> d          29.266  70.145 -21.667  0.00  0.00     0.031 A 
ATOM     19  C15 <0> d          30.602  70.010 -21.989  0.00  0.00     0.020 A 
ATOM     20  C14 <0> d          30.976  69.287 -23.108  0.00  0.00     0.006 A 
ATOM     21  C13 <0> d          30.013  68.697 -23.907  0.00  0.00     0.020 A 
ATOM     22  I1  <0> d          33.004  69.076 -23.586  0.00  0.00    -0.045 I 
ATOM     23  C12 <0> d          28.675  68.830 -23.590  0.00  0.00     0.031 A 
ENDBRANCH   5  17
TORSDOF 4
ENDMDL
MODEL 8
REMARK VINA RESULT:      -5.9     17.229     18.838
REMARK  4 active torsions:
REMARK  status: ('A' for Active; 'I' for Inactive)
REMARK    1  A    between atoms: C2_2  and  C3_3 
REMARK    2  A    between atoms: C3_3  and  N1_4 
REMARK    3  A    between atoms: C6_8  and  C7_9 
REMARK    4  A    between atoms: N2_13  and  C11_14 
ROOT
ATOM      1  C7  <0> d          23.492  55.588 -29.046  0.00  0.00     0.040 A 
ATOM      2  C8  <0> d          23.375  56.497 -28.010  0.00  0.00     0.031 A 
ATOM      3  C9  <0> d          23.500  55.779 -26.816  0.00  0.00     0.020 A 
ATOM      4  C10 <0> d          23.682  54.474 -27.132  0.00  0.00     0.097 A 
ATOM      5  N2  <0> d          23.685  54.343 -28.485  0.00  0.00    -0.322 N 
ENDROOT
BRANCH   1   6
ATOM      6  C6  <0> d          23.426  55.882 -30.429  0.00  0.00     0.054 C 
ATOM      7  C5  <0> d          22.216  55.970 -31.051  0.00  0.00     0.080 A 
ATOM      8  C4  <0> d          20.912  55.692 -30.542  0.00  0.00     0.268 A 
ATOM      9  S1  <0> d          21.831  56.473 -32.722  0.00  0.00    -0.023 SA
ATOM     10  N1  <0> d          19.882  55.856 -31.354  0.00  0.00    -0.271 N 
ATOM     11  O1  <0> d          20.752  55.315 -29.396  0.00  0.00    -0.266 OA
ATOM     12  C17 <0> d          20.059  56.275 -32.627  0.00  0.00     0.294 A 
ATOM     13  O2  <0> d          19.222  56.473 -33.488  0.00  0.00    -0.259 OA
BRANCH  10  14
ATOM     14  C3  <0> d          18.528  55.581 -30.867  0.00  0.00     0.162 C 
BRANCH  14  15
ATOM     15  C2  <0> d          18.073  54.238 -31.377  0.00  0.00    -0.017 C 
ATOM     16  C1  <0> d          18.466  53.142 -30.777  0.00  0.00     0.008 C 
ENDBRANCH  14  15
ENDBRANCH  10  14
ENDBRANCH   1   6
BRANCH   5  17
ATOM     17  C11 <0> d          23.850  53.145 -29.191  0.00  0.00     0.039 A 
ATOM     18  C16 <0> d          25.124  52.699 -29.517  0.00  0.00     0.031 A 
ATOM     19  C15 <0> d          25.283  51.518 -30.215  0.00  0.00     0.020 A 
ATOM     20  C14 <0> d          24.175  50.779 -30.589  0.00  0.00     0.006 A 
ATOM     21  C13 <0> d          22.905  51.219 -30.265  0.00  0.00     0.020 A 
ATOM     22  I1  <0> d          24.422  48.983 -31.639  0.00  0.00    -0.045 I 
ATOM     23  C12 <0> d          22.739  52.401 -29.567  0.00  0.00     0.031 A 
ENDBRANCH   5  17
TORSDOF 4
ENDMDL
MODEL 9
REMARK VINA RESULT:      -5.9     36.360     37.881
REMARK  4 active torsions:
REMARK  status: ('A' for Active; 'I' for Inactive)
REMARK    1  A    between atoms: C2_2  and  C3_3 
REMARK    2  A    between atoms: C3_3  and  N1_4 
REMARK    3  A    between atoms: C6_8  and  C7_9 
REMARK    4  A    between atoms: N2_13  and  C11_14 
ROOT
ATOM      1  C7  <0> d           2.137  52.390  -7.561  0.00  0.00     0.040 A 
ATOM      2  C8  <0> d           3.260  52.818  -8.247  0.00  0.00     0.031 A 
ATOM      3  C9  <0> d           2.814  53.458  -9.408  0.00  0.00     0.020 A 
ATOM      4  C10 <0> d           1.460  53.409  -9.418  0.00  0.00     0.097 A 
ATOM      5  N2  <0> d           1.034  52.767  -8.298  0.00  0.00    -0.322 N 
ENDROOT
BRANCH   1   6
ATOM      6  C6  <0> d           2.123  51.694  -6.329  0.00  0.00     0.054 C 
ATOM      7  C5  <0> d           1.982  52.381  -5.160  0.00  0.00     0.080 A 
ATOM      8  C4  <0> d           1.951  53.789  -4.932  0.00  0.00     0.268 A 
ATOM      9  S1  <0> d           1.776  51.760  -3.496  0.00  0.00    -0.023 SA
ATOM     10  N1  <0> d           1.801  54.213  -3.689  0.00  0.00    -0.271 N 
ATOM     11  O1  <0> d           2.060  54.577  -5.854  0.00  0.00    -0.266 OA
ATOM     12  C17 <0> d           1.681  53.339  -2.665  0.00  0.00     0.294 A 
ATOM     13  O2  <0> d           1.538  53.569  -1.479  0.00  0.00    -0.259 OA
BRANCH  10  14
ATOM     14  C3  <0> d           1.765  55.652  -3.416  0.00  0.00     0.162 C 
BRANCH  14  15
ATOM     15  C2  <0> d           3.160  56.145  -3.128  0.00  0.00    -0.017 C 
ATOM     16  C1  <0> d           3.646  57.162  -3.793  0.00  0.00     0.008 C 
ENDBRANCH  14  15
ENDBRANCH  10  14
ENDBRANCH   1   6
BRANCH   5  17
ATOM     17  C11 <0> d          -0.302  52.524  -7.952  0.00  0.00     0.039 A 
ATOM     18  C16 <0> d          -0.953  51.398  -8.440  0.00  0.00     0.031 A 
ATOM     19  C15 <0> d          -2.270  51.162  -8.099  0.00  0.00     0.020 A 
ATOM     20  C14 <0> d          -2.941  52.045  -7.272  0.00  0.00     0.006 A 
ATOM     21  C13 <0> d          -2.295  53.166  -6.784  0.00  0.00     0.020 A 
ATOM     22  I1  <0> d          -4.936  51.677  -6.750  0.00  0.00    -0.045 I 
ATOM     23  C12 <0> d          -0.978  53.409  -7.122  0.00  0.00     0.031 A 
ENDBRANCH   5  17
TORSDOF 4
ENDMDL
MODEL 10
REMARK VINA RESULT:      -5.9     19.971     22.655
REMARK  4 active torsions:
REMARK  status: ('A' for Active; 'I' for Inactive)
REMARK    1  A    between atoms: C2_2  and  C3_3 
REMARK    2  A    between atoms: C3_3  and  N1_4 
REMARK    3  A    between atoms: C6_8  and  C7_9 
REMARK    4  A    between atoms: N2_13  and  C11_14 
ROOT
ATOM      1  C7  <0> d          27.757  59.545  -6.926  0.00  0.00     0.040 A 
ATOM      2  C8  <0> d          27.800  60.449  -7.972  0.00  0.00     0.031 A 
ATOM      3  C9  <0> d          27.653  59.718  -9.155  0.00  0.00     0.020 A 
ATOM      4  C10 <0> d          27.532  58.409  -8.824  0.00  0.00     0.097 A 
ATOM      5  N2  <0> d          27.588  58.289  -7.471  0.00  0.00    -0.322 N 
ENDROOT
BRANCH   1   6
ATOM      6  C6  <0> d          27.867  59.852  -5.549  0.00  0.00     0.054 C 
ATOM      7  C5  <0> d          29.090  59.855  -4.947  0.00  0.00     0.080 A 
ATOM      8  C4  <0> d          30.361  59.472  -5.470  0.00  0.00     0.268 A 
ATOM      9  S1  <0> d          29.539  60.350  -3.288  0.00  0.00    -0.023 SA
ATOM     10  N1  <0> d          31.413  59.568  -4.676  0.00  0.00    -0.271 N 
ATOM     11  O1  <0> d          30.473  59.067  -6.613  0.00  0.00    -0.266 OA
ATOM     12  C17 <0> d          31.289  60.016  -3.407  0.00  0.00     0.294 A 
ATOM     13  O2  <0> d          32.153  60.161  -2.562  0.00  0.00    -0.259 OA
BRANCH  10  14
ATOM     14  C3  <0> d          32.735  59.183  -5.179  0.00  0.00     0.162 C 
BRANCH  14  15
ATOM     15  C2  <0> d          33.010  57.745  -4.823  0.00  0.00    -0.017 C 
ATOM     16  C1  <0> d          33.105  56.842  -5.767  0.00  0.00     0.008 C 
ENDBRANCH  14  15
ENDBRANCH  10  14
ENDBRANCH   1   6
BRANCH   5  17
ATOM     17  C11 <0> d          27.494  57.091  -6.751  0.00  0.00     0.039 A 
ATOM     18  C16 <0> d          28.576  56.221  -6.705  0.00  0.00     0.031 A 
ATOM     19  C15 <0> d          28.480  55.040  -5.996  0.00  0.00     0.020 A 
ATOM     20  C14 <0> d          27.309  54.723  -5.331  0.00  0.00     0.006 A 
ATOM     21  C13 <0> d          26.231  55.588  -5.374  0.00  0.00     0.020 A 
ATOM     22  I1  <0> d          27.172  52.935  -4.249  0.00  0.00    -0.045 I 
ATOM     23  C12 <0> d          26.320  56.771  -6.083  0.00  0.00     0.031 A 
ENDBRANCH   5  17
TORSDOF 4
ENDMDL
